<configuration>
  <input>
    <net-file value="./maps/Zanjan_1.net.xml"/>
    <route-files value="./routes/routes - 1.rou.xml"/>
  </input>
  <time>
    <begin value="0"/>
    <end value="1000"/>
  </time>
</configuration>
