<?xml version="1.0" encoding="UTF-8"?>

<!-- generated on 2025-10-06 15:23:23.713591 by randomTrips.py v1_24_0+0000-b72eb3fabc8
<configuration>
    <net-file value="Zanjan_3.net.xml"/>
    <output-trip-file value="Zanjan_3.trips.xml"/>
    <prefix value="veh"/>
    <trip-attributes value="departLane=&quot;best&quot; departSpeed=&quot;max&quot; departPos=&quot;random&quot;"/>
    <fringe-factor value="2"/>
    <end value="1000.0"/>
    <period value="1.0"/>
    <binomial value="100"/>
</configuration>
-->

<!-- generated on 2025-10-06 15:23:08 by Eclipse SUMO duarouter Version 1.24.0
<duarouterConfiguration xmlns:xsi="http://www.w3.org/2001/XMLSchema-instance" xsi:noNamespaceSchemaLocation="http://sumo.dlr.de/xsd/duarouterConfiguration.xsd">

    <input>
        <net-file value="Zanjan_3.net.xml"/>
        <route-files value="Zanjan_3.trips.xml"/>
    </input>

    <output>
        <output-file value="routes.rou.xml"/>
        <alternatives-output value="NUL"/>
    </output>

    <time>
        <begin value="0"/>
        <end value="1000.0"/>
    </time>

    <report>
        <no-warnings value="true"/>
        <ignore-errors value="true"/>
        <no-step-log value="true"/>
    </report>

</duarouterConfiguration>
-->

<routes xmlns:xsi="http://www.w3.org/2001/XMLSchema-instance" xsi:noNamespaceSchemaLocation="http://sumo.dlr.de/xsd/routes_file.xsd">
    <vehicle id="veh0" depart="0.00" departLane="best" departPos="random" departSpeed="max">
        <route edges="596851106#1 627092073#0 627092073#1 627092073#2 627092073#3 303869375#2 303869375#3 -303869164 -618141683#2 -618141683#1 -618141683#0 -302969376#7 -302969376#6 -302969376#5 -302969376#4 -302969376#3 -302969376#2 -302969376#1 -302969376#0 303868887#4 303868887#5 303868887#6 303868887#7 303868887#8 303868887#9 303868887#10 303868887#11 303868887#12 303868887#13 303868887#14 303868887#15 303868887#16 303868887#17 303868887#18 303868887#19 303868887#20 303868887#21 303868887#22 692553044#0 692553044#1 692553044#2 58853148#2 58853148#3 58853148#4 58853148#5 192147964#5 192147964#6 192147964#7 192147964#0 192147964#1 303868893#0 303868893#1 303868893#2 -303998428#9 -303998428#8 -303998428#7 -303998428#6 384810395"/>
    </vehicle>
    <vehicle id="veh1" depart="0.00" departLane="best" departPos="random" departSpeed="max">
        <route edges="-619603240 -307417817#3 -307417817#2 -307417817#1 307417820 -303868877#1 -303868877#0 58853203#0 1111984374#0 1111984374#1 303869322#0 303869322#1 303869322#2 303869322#3 302971855#0 302971855#1 302971855#2 302971855#3 302971855#4 302971855#5 302971855#6 302971855#7 817792461#0 817792461#1 303869351 442167694#0 442167694#1 442167694#2 442167694#3 303869383#2 303869383#3 303869383#4 520965935#4 520965935#5 520965935#6 520965935#7 764335893#0 764335893#1 -1053277274 899785414#1 899785415 -810683457#3 -810683457#2 -810683457#1 -810683457#0 -818423547#2 -818423547#1 -818423547#0 -303868892#10 -303868892#9 -303868892#8 -303868892#7 384680035 303869098#5 303869098#0 303869098#1 1274347512#0 -1274347511#2 -1274347511#1"/>
    </vehicle>
    <vehicle id="veh2" depart="1.00" departLane="best" departPos="random" departSpeed="max">
        <route edges="601988654 303868950#4 303868950#5 303868950#6 303868950#7 191059937#1 191059937#2 191059937#3 191059937#4 191059937#5 191059937#6 191059937#7 191059937#8 191059937#9 191059937#10 191059937#11 191059937#12 191059937#13 191059937#14 191059937#15 191059937#16 191059937#17 191059937#18 191059937#19 191059937#20 191059937#21 191059937#22 191059937#23 303869320#0 303869320#1 298839376 307410355#0 307410355#1 301990193#0 301990193#1 301990193#2 -791186569#17 -791186569#16 -791186569#15 -791186569#14 -791186569#13 -791186569#12 -791186569#11 -791186569#10 -791186569#9 -791186569#8 -791186569#7 -791186569#6 -791186569#5 -791186569#4 -791186569#3 -791186569#2 -791186569#1 -791186569#0 -301990038 303868891#0 303868891#1 303868891#2 303868891#3 303868891#4 303868891#5 303868891#6 303868891#7 303868891#8 303868891#9 303868891#10 303868891#11 303868891#12 302969368#2 302969372#0 302969372#1 692531406#0 692531406#1 302969373#0 302969373#1 302969373#2 302969373#3 302969373#4 302969373#5 302969373#6 302969373#7 302969373#8 302969373#9 302969373#10 303868887#20 303868887#21 303868887#22 303868887#23 303868887#24 303868887#25 58853154#5 58853154#6 302972449#0 302972449#1 302972449#2 302972449#3 1283206776#0 1283206776#1 1283206776#2 1283206776#3 1283206776#4 1283206778 695774324#0 695774324#1 1147590987 303869268#0 303869268#1 303869268#2 303869268#3 303869094#6 303869094#7 303869094#0 303869094#1 303869036#0 303869036#1 303869036#2 303869036#3 303869036#4 1111518127#3 1111518127#0 303869317 192147968#5 192147968#6 192147968#7 192147968#8 192147968#9 192147968#10 192147968#11 733808591 696405489 792638156 697954529#0 697954529#1 697954529#2 697954529#3 697954529#4 697954529#5 697954529#6 697954529#7 697954529#8 697954529#9 622011977#1 622011977#2 622011977#3 622011977#4 -617479701"/>
    </vehicle>
    <vehicle id="veh3" depart="1.00" departLane="best" departPos="random" departSpeed="max">
        <route edges="-303869384#2 303869384#2 303869384#3 -382630988#2 -382630988#1 -382630988#0 303869256#0 386799121#0 386799121#1 386799121#2 386799121#3 191095253#3 191095253#4 302970583#0 302970583#1 302970583#2 302970583#3 -532988481 -307417826#11 -307417826#10 -307417826#9 -307417826#8 -307417826#7 -307417826#6 -307417826#5 384695706#0 626324852"/>
    </vehicle>
    <vehicle id="veh4" depart="3.00" departLane="best" departPos="random" departSpeed="max">
        <route edges="681631776 681631771#0 681631771#1 681631771#2 681631771#3 681631771#4 681631771#5 303869097#5 303869097#6 303869097#0 303869097#1 303869279#0 303869279#1 303869279#2 303869279#3 303869279#4 1283206793 1283206791#0 1283206791#1 1283206791#2 1283206791#3 1283206791#4 1283206791#5 441108174#4 441108174#5 441108174#6 441108174#0 876024581#0 876024581#1 876024581#2 876024581#3 888815896 678817513#0 678817513#1 678817513#2 678817513#3 678817513#4 678817513#5 680346735#1 680346735#2 680346735#3 680346735#4 680346735#5 680346735#6 680346735#7 680346735#8 680346735#9 680346735#10 680346735#11 192148007#3 303869300#0 303869300#1 303869300#2"/>
    </vehicle>
    <vehicle id="veh5" depart="4.00" departLane="best" departPos="random" departSpeed="max">
        <route edges="-601911139#3 601911139#3 601911139#4 601911139#5 601911139#6 682124951#4 682124951#5 682124951#6 191059903#5 191059903#0 191059976#0 191059976#1 191059976#2 191059976#3 441108174#5 441108174#6 441108174#0 876024581#0 876024581#1 876024581#2 876024581#3 888815896 678817513#0 678817513#1 678817513#2 678817513#3 678817513#4 678817513#5 678817513#6 678817513#7 678817513#8 678817513#9 678817513#10 678817513#11 678817513#12 678817513#13 678817513#14 678817513#15 678817513#16 678817513#17 678817513#18 678817513#19 678817513#20 678817513#21 678817513#22 678817513#23 678817513#24 303868902#3 303868902#4 303868902#5 303868902#6 303868902#0 384626494#0 384626494#1 384626494#2 384626494#3 384626494#4 384626494#5 384626494#6 384626494#7 384626494#8 384626494#9 384626494#10 384626494#11 384626494#12 384626494#13 384626494#14 384626494#15 384626494#16 384626494#17 384626494#18 384626494#19 384626494#20 384626494#21 178660919#1 178660919#2 178660919#3 681360467#0 681360467#1 681360467#2 681360467#3 681360467#4 681360467#5 303869090#1 303869090#2 303869090#3 860925360#0 860925360#1 860925360#2 860925360#3 860925360#4 860925359#2 860925359#3 860925359#4 692544087#0 692544087#1 692544087#2 692544087#3 692544087#4 692544087#5 692544087#6 692544087#7 692544087#8 692544087#9 692544087#10 692544087#11 683482736#3 805982770 785043842#1 785043842#2 785043842#3 785043842#4 384683644 617827242#3 617827242#4 1317419916 384683632#7 -899373431#1 -899373431#0 1009820616 899373430#5 899373430#6 899373430#0 899373430#1 903661264 903661265#0 903661265#1 903661266 903661263 -384683633#0 683997360 683994984#4 683994984#5 683994984#6 683994984#7 683994984#8 683994984#0 302973667#0 302973667#1 302973667#2 302973667#3 302973667#4 302973667#5 302973667#6 302973667#7 302973667#8 304060410#5 304060410#6 304060410#7 304060410#0 304060410#1 304060410#2 384685357#0 384685357#1 384685357#2 312712318#0 312712318#1 312712318#2 312712318#3 612862029#0 612862029#1 -312712319#4 -312712319#3 -312712320#3 617609926#0 1111303407"/>
    </vehicle>
    <vehicle id="veh6" depart="4.00" departLane="best" departPos="random" departSpeed="max">
        <route edges="413068053#0 -303998277#0 302972449#3 615793470#0 615793470#1 303869095#2 303869095#3 -615793471#12 -615793471#11 -615793471#10 -615793471#9 -615793471#8 -615793471#7 -615793471#6 -615793471#5 -615793471#4 -615793471#3 -615793471#2 -615793471#1 -615793471#0 754457139#3 754457139#4 754457139#5 192147964#3 192147964#4 192147964#5 192147964#6 302969366#0 302969366#1 302969366#2 302969366#3 302969366#4 302969366#5 302969366#6 302969366#7 302969366#8 302969366#9 384165371 618614472#0 618614472#1 618614472#2 618614472#3 618614472#4 618614472#5 618614472#6 618614472#7 618614472#8 618614472#9 618614472#10 633291922#2 633291922#3 633291922#4 633291922#5 633291922#6 633291922#7 633291922#8 633291922#9 633291922#10 633291922#11 633291922#12 633291922#13 633291922#14 633291922#15 633291922#16 633291922#17 446625235#0 446625235#1 446625235#2 446625235#3 446625235#4 446625235#5 446625232#1 446625232#2 446625237#0 446625237#1 446625237#2 446625237#3 446625237#4 683077734#0 683077734#1 619030855#0 619030855#1 619030855#2 383757751 373575437#1 302970577#0 -383758785#1 -383758785#0 816057910 383761395#0 383761395#1 383761395#2 383761395#3 383761395#4 383761395#5 383761395#6 383761395#7 383761395#8 383761395#9 383761395#10 192147961#6 192147961#7 192147961#8 192147961#9 58853219#1 58853219#2 58853219#3 191095254#0 191095254#1 191095254#2 191095254#3 191095254#4 191095254#5 191095254#6 191095254#7 191095254#8 191095254#9 191095254#10 191095254#11 191095254#12 191095254#13 29279825#3 29279825#4 29279825#5 29279825#6 29279825#7 191095204#0 191095204#1 191095204#2 191095204#3 191095204#4 191095204#5 191095204#6 191095284#1 191095284#2 191095284#3 191095277#0 191095277#1 191095277#2 191095277#3 191095280 191095287#0 191095287#1 191095281 191095288#0 191095288#1 191095286 52083783#0 52083783#1 52083783#2 52083783#3 52083783#4 52083783#5 191096968 191096959#0 191096959#1 191096977#0 191096977#1 191096977#2 191096977#3 191096977#4 191096977#5 1097817684 1097817683 826549029#0 -826549029#0 1097817682#0 1097817682#1 1097817682#2 1097817682#3 1097817681 826549028#0 446625730 446625732 446625761 446625740#0 446625740#1 446625741 446625745#0"/>
    </vehicle>
    <vehicle id="veh7" depart="5.00" departLane="best" departPos="random" departSpeed="max">
        <route edges="-635755012#0 -601895747#1 -601895747#0 -312713233#3 -312713233#2 -312713233#1 -312713233#0 692544088#2 692544088#3 692544088#4 692544088#5 692544088#6 692544088#7 692544088#8 692544088#9 860925359#6 860925359#7 860925359#0 641559591#0 641559591#1 641559591#2 641559591#3 641559591#4 303869090#5 303869090#6 303869090#7 178660909#0 178660909#1 178660909#2 178660909#3 178660909#4 178660909#5 178660919#5 178660919#6 178660919#7 303869361#0 303869361#1 303869361#2 303869361#3 303869361#4 303869361#5 303869361#6 303869361#7 303869361#8 303869361#9 303869361#10 303869361#11 303869361#12 303869361#13 303869361#14 303869361#15 303869361#16 303869361#17 303869361#18 680906336#0 680906336#1 680906336#2 680906336#3 680906336#4 680906336#5 680906336#6 680906336#7 680906336#8 680906336#9 680906336#10 680906336#11 680906336#12 680906336#13 680906336#14 680906336#15 680906336#16 680906336#17 680906336#18 680906336#19 680906336#20 680906336#21 680906336#22 680906336#23 680906336#24 680906336#25 888815897 876023541#0 876023541#1 876023541#2 876023541#3 876023541#4 441104270#7 441104270#8 441104270#9 441104270#10 440441228#0 440441228#1 440441228#2 440441228#3 440441228#4 440441228#5 440441228#6 440441228#7 440441228#8 440441228#9"/>
    </vehicle>
    <vehicle id="veh8" depart="5.00" departLane="best" departPos="random" departSpeed="max">
        <route edges="1227815886 -1227815887 -692518171#1 -692518171#0 692518186#6 692518186#7 692518186#8 692518186#9 -680341234#2 -680341234#1 -680341234#0 178660916#0 178660916#1 178660916#2 178660916#3 58853174#0 58853174#1 682079915#0 682079915#1 682079915#2 682079915#3 682079915#4 682079915#5 682079915#6 682079915#7 682079915#8 682079915#9 682079915#10 682079915#11 682079915#12 682079915#13 682079915#14 682079915#15 680338909 384626491#0 384626491#1 384626491#2 384626491#3 384626491#4 384626491#5 384626491#6 384626491#7 384626491#8 384626491#9 384626491#10 384626491#11 384626491#12 384626491#13 302969376#0 302969376#1 302969376#2 302969376#3 302969376#4 302969376#5 302969376#6 302969376#7 618141683#0 618141683#1 618141683#2 303869164 621233865#0 621233865#1 621233865#2 302969379#0 302969379#1 302969379#2 302969379#3 302969379#4 302969379#5 302969379#6 302969379#7 302969379#8 302969379#9 302969379#10 302969379#11 413068477#0 413068477#1 413068477#2 791186569#12 384945772 305850790 305850791#0 305850791#1 305850791#2 305850791#3 -1226186263#3 -1226186263#2 -1226186263#1 -1226186263#0 375360564#0 619493713 305851681#4 305851681#5 305851681#6"/>
    </vehicle>
    <vehicle id="veh9" depart="7.00" departLane="best" departPos="random" departSpeed="max">
        <route edges="596111405#0 -596111405#0 -307410394#4 -307410394#3 307410398#0 307410398#1 383064930#1 307410393#0 307410393#1 307410393#2 29279866#2 1308753012 191059937#21 191059937#22 191059937#23 1111987056#0 1111987056#1 302970930#0 302970930#1 302970930#2 -644531307 -383942393#1 -383942393#0 620862746 383942186#0 383942186#1 384465834#0 384465834#1 384465834#2 382852860#0 382852860#1 29279864#0 29279864#1 29279864#2 302970574#0 384208395#0 -384208563#1 -384208563#0 383758117#0 -706437076#1 672610432 672610431"/>
    </vehicle>
    <vehicle id="veh10" depart="7.00" departLane="best" departPos="random" departSpeed="max">
        <route edges="619510626#0 594054665 -813778073 594050822 384688863 617831417#2 617831417#3 617831417#4 617831417#5 617831417#6 617831417#7 -312713241#0 192147968#22 192147968#23 192147968#24 192147968#25 192147968#26 -303998416#5 -303998416#4 -303998416#3 -303998416#2 -303998416#1 -303998416#0 303998467#2 303998467#3 302972456#5 302972456#6 303868961 302972454#4 192147996#0 192147996#1 192147996#2 192147996#3 192147996#4 192147996#5 192147996#6 192147996#7 192147996#8 1227872673 754457138 1227872672#0 754457139#0 754457139#1 754457139#2 754457139#3 754457139#4 754457139#5 192147964#3 192147964#4 192147964#5 192147964#6 302969366#0 302969366#1 302969366#2 302969366#3 302969366#4 302969366#5 302969366#6 302969366#7 302969366#8 302969366#9 384165371 618614472#0 618614472#1 618614472#2 618614472#3 618614472#4 618614472#5 618614472#6 618614472#7 618614472#8 618614472#9 618614472#10 633291922#2 633291922#3 633291922#4 633291922#5 633291922#6 633291922#7 633291922#8 633291922#9 633291922#10 633291922#11 633291922#12 633291922#13 633291922#14 633291922#15 633291922#16 633291922#17 446625235#0 446625235#1 446625235#2 446625235#3 446625235#4 446625235#5 446625232#1 446625232#2 446625237#0 446625237#1 446625237#2 446625237#3 446625237#4 683077734#0 683077734#1 619030855#0 619030855#1 619030855#2 383757751 373575437#1 302970577#0 -383758785#1 -383758785#0 816057910 383759715#0 383759715#1 383759715#2 683065327#0 683065327#1 625499716 302970579#2 302970580 58853198#4 58853198#5 58853198#6 626231814#0 626231814#1 626231814#2 -384136050#1 -384136050#0"/>
    </vehicle>
    <vehicle id="veh11" depart="8.00" departLane="best" departPos="random" departSpeed="max">
        <route edges="621068040 304763799#2 304763799#3 304763799#4 304763799#5 304763799#6 304763799#7 304763799#8 301990193#2 -791186569#17 -791186569#16 -791186569#15 860925767#0 860925767#1 860925767#2 860925767#3 860925767#4 1232509177#0 1232509177#1 1232509177#2 1232509177#3 1231080186 1013641568#0 1013641568#1 -58853176#11 -58853176#10 -58853176#9 -58853176#8 -58853176#7 -58853176#6 -58853176#5 -58853176#4 -58853176#3 -58853176#2 -58853176#1 -58853176#0 321766816#0 321766816#1 682088022 303868899#23 303868899#24 303868899#25 303868899#26 -302967127#8 -302967127#7 -302967127#6 -302967127#5 -302967127#4 -302967127#3 -302967127#2 -302967127#1 -302967127#0 303868999 618614472#5 302967128#0 302967128#1 302967128#2 303998342 -303998274#4 -603265070#1 303998480#9"/>
    </vehicle>
    <vehicle id="veh12" depart="9.00" departLane="best" departPos="random" departSpeed="max">
        <route edges="-614154548 -384471364#2 -384471364#1 -384471364#0 614154545 -791186569#14 -791186569#13 -791186569#12 -791186569#11 -791186569#10 -791186569#9 -791186569#8 -791186569#7 -791186569#6 -791186569#5 -791186569#4 -791186569#3 -791186569#2 -791186569#1 -791186569#0 -301990038 303868891#0 303868891#1 303868891#2 303868891#3 303868891#4 303868891#5 303868891#6 303868891#7 303868891#8 303868891#9 303868891#10 303868891#11 303868891#12 302969368#2 302969372#0 302969372#1 692531406#0 692531406#1 302969373#0 302969373#1 302969373#2 302969373#3 302969373#4 302969373#5 302969373#6 302969373#7 302969373#8 302969373#9 302969373#10 303868887#20 303868887#21 303868887#22 303868887#23 303868887#24 303868887#25 58853154#5 58853154#6 302972449#0 302972449#1 302972449#2 302972449#3 1283206776#0 1283206776#1 1283206776#2 1283206776#3 1283206776#4 1283206778 695774324#0 695774324#1 1147590987 303869268#0 303869268#1 303869268#2 303869268#3 303869094#6 303869094#7 303869094#0 303869094#1 303869036#0 303869036#1 303869036#2 303869036#3 303869036#4 1111518127#3 1111518127#0 303869317 192147968#5 192147968#6 192147968#7 192147968#8 192147968#9 192147968#10 192147968#11 733808591 696405489 792638156 697954529#0 697954529#1 697954529#2 697954529#3 697954529#4 697954529#5 697954529#6 697954529#7 697954529#8 697954529#9 722840824#0 566305407#11 1000315544 -384685354#6 -384685354#5 -384685354#4 -384685354#3 -384685354#2 -384685354#1 -384685354#0 1000315545 304060410#7 304060410#0 304060459#0 304060459#1 304060459#2 304060459#3 304060459#4 688383788#0 -387399169#5 -387399169#4 -387399169#3 -387399169#2 -387399169#1 -387399169#0"/>
    </vehicle>
    <vehicle id="veh13" depart="11.00" departLane="best" departPos="random" departSpeed="max">
        <route edges="410667979 -410661961#3 410667980 -410661965#2 -410661965#1 -410661965#0 -410661964 -389732027#2 -389732027#1 -389732027#0 -389732026#1 -389732026#0 191095207 191095218 191095221 191095215 191095212 191095290#1 191095283 191095289 191095282 191095279#0 191095279#1 191095279#2 191095284#5 191095284#6 191095284#7 52083781#0 52083781#1 52083781#2 52083781#3 52083781#4 52083781#5 52083781#6 29279825#10 29279825#11 29279825#12 29279825#13 29279825#14 29279825#0 191095253#0 191095253#1 191095253#2 191095253#3 191095253#4 302970583#0 302970583#1 302970583#2 302970583#3 -532988481 -601988625#1 -601988625#0 -303868877#17 -303868877#16 -303868877#15 -303868877#14 -303868877#13 -303868877#12 -303868877#11 -303868877#10 -303868877#9 -303868877#8 -303868877#7 -303868877#6 -303868877#5 -303868877#4 -303868877#3 -303868877#2 -303868877#1 -303868877#0 58853203#0 1111984374#0 1111984374#1 303869322#0 303869322#1 303869322#2 303869322#3 302971855#0 302971855#1 302971855#2 302971855#3 302971855#4 302971855#5 302971855#6 302971855#7 817792461#0 817792461#1 303869351 442167694#0 442167694#1 442167694#2 442167694#3 303869383#2 303869383#3 303869383#4 520965935#4 520965935#5 520965935#6 520965935#7 764335893#0 764335893#1 -1053277274 899785414#1 899785415 -810683457#3 -810683457#2 -810683457#1 -810683457#0 -818423547#2 -818423547#1 -818423547#0 -303868892#10 -303868892#9 -303868892#8 -303868892#7 -303868892#6 -303868892#5 -303868892#4 -303868892#3 -303868892#2 -303868892#1 -303868892#0 -303869163#4 -303869163#3 -303869163#2 -303869163#1 384680052#0 384680052#1 384680052#2 -384680053#2"/>
    </vehicle>
    <vehicle id="veh14" depart="13.00" departLane="best" departPos="random" departSpeed="max">
        <route edges="-303998294 192147970#1 192147970#2 192147970#3 192147970#4 192147970#5 192147973#0 192147973#1 682079915#4 682079915#5 682079915#6 682079915#7 682079915#8 682079915#9 682079915#10 682079915#11 682079915#12 682079915#13 682079915#14 682079915#15 303869361#9 303869361#10 303869361#11 303869361#12 303869361#13 303869361#14 303869361#15 303869361#16 303869361#17 303869361#18 680906336#0 680906336#1 680906336#2 680906336#3 680906336#4 680906336#5 680906336#6 680906336#7 680906336#8 680906336#9 680906336#10 680906336#11 680906336#12 680906336#13 680906336#14 680906336#15 680906336#16 680906336#17 680906336#18 680346735#0 680346735#1 680346735#2 680346735#3 680346735#4 680346735#5 680346735#6 680346735#7 680346735#8 680346735#9 680346735#10 680346735#11 192148007#3 192148007#4 192147982 192147960#0 192147960#1 298839372#0 298839372#1 298839372#2 298839372#3 298839372#4 298839372#5 298839372#6 298839372#7 1234559294#0 1234559294#1 298839367#0 298839367#1 298839367#2 298839367#3 298839367#4 298839367#5 384466724#0 384466724#1 403225896#0 403225896#1 403225896#2 403225896#3 403225896#4 403225896#5 403225896#6 403225896#7 746910091 680016111#5 680016111#0 680016111#1 302972445#0 302972445#1 302972445#2 302972446#0 302972446#1 302972446#2 302972446#3 302972446#4 302972446#5 302972446#6 302972446#7 302972446#8 302972446#9 302972446#10 302972446#11 302972446#12 302972446#13 601950146#0 601950146#1 601950146#2 403225889#0 403225889#1 403225889#2 403225889#3 403225889#4 403225889#5 303869328#2 1111984373#0 1111984373#1 -602043247#3 -602043247#2 -602043247#1 -602043247#0 -602043249#7 -602043249#6 -602043249#5 -602043249#4 -602043249#3 -602043249#2 -602043249#1 -602043249#0 -384839883#5 -384839883#4 -384839883#3 -384839883#2 -384839883#1 -384839883#0 -384839882#2 -384839882#1 580058626#0 -580058626#0"/>
    </vehicle>
    <vehicle id="veh15" depart="14.00" departLane="best" departPos="random" departSpeed="max">
        <route edges="303869382#7 303869382#8 -1255194664 303869339#0 303869339#1 303869339#2 303869339#3 303869339#4 303869339#5 303869339#6 303869100#1 446645323#0 446645323#1 446645323#2 446645323#3 446645323#4 446645323#5 -303869065 872241712#1 872241712#2 872241712#3 872241712#4 872241712#5 1284575251 191059963#0 191059963#1 191059963#2 191059963#3 191059911#6 191059911#7 191059911#0 191059958#0 191059958#1 191059917 1431979665#0 1431979665#1 1431979665#2 1431979665#3 303869280#4 303869280#5 -1431979667 1431979666 1307027328 -307410411#2 441128933#0 441128933#1 191059937#0 191059937#1 191059937#2 191059937#3 191059937#4 191059937#5 191059937#6 191059937#7 191059937#8 191059937#9 191059937#10 191059937#11 191059937#12 191059937#13 191059937#14 191059937#15 191059937#16 191059937#17 191059937#18 191059937#19 191059937#20 191059937#21 191059937#22 191059937#23 303869320#0 303869320#1 298839376 307410355#0 307410355#1 301990193#0 301990193#1 301990193#2 -791186569#17 -791186569#16 -791186569#15 860925767#0 860925767#1 860925767#2 860925767#3 860925767#4 1232509177#0 1232509177#1 1232509177#2 1232509177#3 1231080186 1011989748 -1011989747#2 -1011989747#1 683048921#0"/>
    </vehicle>
    <vehicle id="veh16" depart="17.00" departLane="best" departPos="random" departSpeed="max">
        <route edges="303998459#0 303869108#13 303869108#14 303869108#15 754457139#5 192147964#3 192147964#4 192147964#5 302969371 -302969369#14 -302969369#13 -302969369#12 -302969369#11 -302969369#10 -302969369#9 -302969369#8 -302969369#7 -302969369#6 -302969369#5 303869219#0 303869219#1 303869219#2 301990038 791186569#0 791186569#1 791186569#2 791186569#3 791186569#4 791186569#5 791186569#6 791186569#7 791186569#8 791186569#9 791186569#10 791186569#11 791186569#12 791186569#13 791186569#14 791186569#15 791186569#16 791186569#17 301990040#0 301990040#1 301990040#2 301990040#3 301990040#4 301990040#5 301990040#6 301990040#7 302970572#0 302970572#1 302970572#2 302970572#3 -621072400 305822843#2 305822843#3 305822843#4 -305822843#4"/>
    </vehicle>
    <vehicle id="veh17" depart="18.00" departLane="best" departPos="random" departSpeed="max">
        <route edges="-1274347512#1 -1274347512#0 303869098#2 303869098#3 384680034#0 384680034#1 303868892#6 303868892#7 303868892#8 303868892#9 303868892#10 818423547#0 818423547#1 818423547#2 810683457#0 888815896 678817513#0 678817513#1 678817513#2 678817513#3 678817513#4 678817513#5 678817513#6 678817513#7 678817513#8 678817513#9 678817513#10 678817513#11 678817513#12 678817513#13 678817513#14 678817513#15 678817513#16 678817513#17 678817513#18 678817513#19 678817513#20 678817513#21 678817513#22 678817513#23 678817513#24 303868902#3 303868902#4 303868902#5 303868902#6 303868902#0 384626494#0 384626494#1 384626494#2 384626494#3 384626494#4 384626494#5 384626494#6 384626494#7 384626494#8 384626494#9 384626494#10 384626494#11 384626494#12 384626494#13 384626494#14 384626494#15 384626494#16 384626494#17 384626494#18 384626494#19 384626494#20 384626494#21 178660919#1 178660919#2 178660919#3 681360467#0 681360467#1 681360467#2 681360467#3 681360467#4 681360467#5 303869090#1 303869090#2 303869090#3 860925360#0 860925360#1 860925360#2 860925360#3 860925360#4 860925359#2 860925359#3 860925359#4 692544087#0 692544087#1 692544087#2 692544087#3 692544087#4 692544087#5 692544087#6 692544087#7 692544087#8 692544087#9 692544087#10 692544087#11 683482736#3 805982770 785043842#1 785043842#2 785043842#3 785043842#4 384683644 617827242#3 617827242#4 1317419916 384683632#7 -899373431#1 -899373431#0 1009820616 899373430#5 899373430#6 899373430#0 899373430#1 903661264 903661265#0 903661265#1 903661266 903661263 -384683633#0 683997360 683994984#4 683994984#5 683994984#6 683994984#7 683994984#8 683994984#0 302973667#0 302973667#1 302973667#2 302973667#3 302973667#4 302973667#5 302973667#6 302973667#7 302973667#8 304060410#5 304060410#6 304060410#7 304060410#0 304060459#0 304060459#1 612862375 -615879468#3 612862026#0 612862026#1 612862026#2 -384686259#2 -384686259#1 -384686259#0 -617469323#0"/>
    </vehicle>
    <vehicle id="veh18" depart="19.00" departLane="best" departPos="random" departSpeed="max">
        <route edges="302972791#2 619753346#0 619753346#1 619753346#2 619753346#3 619753346#4 619753346#5 619753346#6 619753346#7 619753346#8 619753346#9 303869100#5 302972793#0 302972793#1 302972793#2 302972793#3 302972793#4 302972793#5 302972793#6 681631776 681631771#0 681631771#1 303869042 303869076 -682137133 -682640054#10 -682640054#9 -682640054#8"/>
    </vehicle>
    <vehicle id="veh19" depart="19.00" departLane="best" departPos="random" departSpeed="max">
        <route edges="303869393#0 -303869393#0 302972793#4 302972793#5 302972793#6 681631776 681631771#0 681631771#1 681631771#2 681631771#3 681631771#4 681631771#5 303869097#5 303869097#6 303869097#0 303869097#1 303869279#0 303869279#1 303869279#2 303869279#3 303869279#4 1283206793 1283206791#0 1283206791#1 1283206791#2 1283206791#3 1283206791#4 1283206791#5 441108174#4 441108174#5 441108174#6 441108174#0 876024581#0 876024581#1 876024581#2 876024581#3 888815896 678817513#0 678817513#1 678817513#2 678817513#3 678817513#4 678817513#5 680346735#1 680346735#2 680346735#3 680346735#4 680346735#5 680346735#6 680346735#7 680346735#8 680346735#9 680346735#10 680346735#11 192148007#3 192148007#4 192147982 192147960#0 192147960#1 192147960#2 192147960#3 192147962#0 192147962#1 680068685#1 680065851#0 680065851#1 680065851#2 680068687#5 680068687#6 680068687#7 680068687#8 680068687#9 302971590#0 302971590#1 302971590#2 302971590#3 302971590#4 303868887#0 303868887#1 303868887#2 303868887#3 303868887#4 303868887#5 303868887#6 303868887#7 303868887#8 303868887#9 303868887#10 303868887#11 303868887#12 303868887#13 303868887#14 303868887#15 303868887#16 303868887#17 303868887#18 303868887#19 303868887#20 303868887#21 303868887#22 303868887#23 303868887#24 303868887#25 58853154#5 58853154#6 302972449#0 302972449#1 302972449#2 302972449#3 1283206776#0 1283206776#1 1283206776#2 1283206776#3 1283206776#4 1283206778 695774324#0 695774324#1 695774324#2 695774324#3 695774324#4 695774324#5 695774324#6 695774324#7 302972448#6 302972454#0 302972454#1 302972454#2 302972454#3 302972454#4 302972454#5 302972454#6 302972454#7 303869305 302972456#3 303998467#0 303998467#1 303998416#0 303998416#1 303998416#2 303998416#3 303998416#4 303998416#5 192147968#27 192147968#28 192147968#29 192147968#30 192147968#31 192147968#32 192147968#33 62062402#7 62062402#8 62062402#9 62062402#10 62062402#11 62062402#0 62062402#1 62062402#2 62062407#0 62062407#1 62062407#2 62062407#3 62062407#4 62062407#5 62062407#6 62062407#7 303868853 303868858#0 303868858#1 303868858#2 52083779#0 52083779#1 52083779#2 52083779#3 52083779#4 52083779#5 52083779#6 52083779#7 52083779#8 52083779#9 52083779#10 451729374 451729375#0 445484897#0 445484897#1 -1358298717 1134348312#0 -1134348312#0"/>
    </vehicle>
    <vehicle id="veh20" depart="19.00" departLane="best" departPos="random" departSpeed="max">