<?xml version="1.0" encoding="UTF-8"?>

<!-- generated on 2025-10-06 03:34:26.694981 by randomTrips.py v1_24_0+0000-b72eb3fabc8
<configuration>
    <net-file value="Zanjan_1.net.xml"/>
    <output-trip-file value="Zanjan_1.trips.xml"/>
    <prefix value="veh"/>
    <trip-attributes value="departLane=&quot;best&quot; departSpeed=&quot;max&quot; departPos=&quot;random&quot;"/>
    <fringe-factor value="1.5"/>
    <end value="500.0"/>
    <period value="1.0"/>
    <binomial value="100"/>
</configuration>
-->

<!-- generated on 2025-10-06 03:34:25 by Eclipse SUMO duarouter Version 1.24.0
<duarouterConfiguration xmlns:xsi="http://www.w3.org/2001/XMLSchema-instance" xsi:noNamespaceSchemaLocation="http://sumo.dlr.de/xsd/duarouterConfiguration.xsd">

    <input>
        <net-file value="Zanjan_1.net.xml"/>
        <route-files value="Zanjan_1.trips.xml"/>
    </input>

    <output>
        <output-file value="routes.rou.xml"/>
        <alternatives-output value="NUL"/>
    </output>

    <time>
        <begin value="0"/>
        <end value="500.0"/>
    </time>

    <report>
        <no-warnings value="true"/>
        <ignore-errors value="true"/>
        <no-step-log value="true"/>
    </report>

</duarouterConfiguration>
-->

<routes xmlns:xsi="http://www.w3.org/2001/XMLSchema-instance" xsi:noNamespaceSchemaLocation="http://sumo.dlr.de/xsd/routes_file.xsd">
    <vehicle id="veh0" depart="0.00" departLane="best" departPos="random" departSpeed="max">
        <route edges="530868226#4 -1050710503 1050710508#2 1050710508#3 1050710508#4 303998272#23 303998272#24 303998272#25 303998272#26 447878207 303998442#1 303998442#2 303998442#3 303998442#4 303998442#5 303998442#6 303998442#7 303998442#8 303998442#9 178664667#3 178664667#4 178664667#5 192147965#0 192147965#1 192147965#2 192147965#3 192147965#4 192147965#5 680906336#19 680906336#20 680906336#21 680906336#22 680906336#23 680906336#24 680906336#25 888815897 -818423547#2 -818423547#1 -818423547#0 -303868892#10 -303868892#9 -303868892#8 -303868892#7 384680035 303869098#5 303869098#0 303869098#1 303869098#2 303869098#3 384680034#0"/>
    </vehicle>
    <vehicle id="veh1" depart="0.00" departLane="best" departPos="random" departSpeed="max">
        <route edges="-627592890 627567975#2 627567975#3 627567975#4 627567975#5 627567975#6 -304780110#1 304780112 673280614 384626494#20 384626494#21 178660919#1 178660919#2 178660919#3 178660919#4 178660919#5 178660919#6 178660919#7 303869361#0 303869361#1 303869361#2 303869361#3 303869361#4 303869361#5 303869361#6 303869361#7 303869361#8 303869361#9 303869361#10 303869361#11 303869361#12 303869361#13 303869361#14 303869361#15 303869361#16 303869361#17 303869361#18 680906336#0 680906336#1 680906336#2 680906336#3 680906336#4 680906336#5 680906336#6 680906336#7 680906336#8 680906336#9 680906336#10 680906336#11 680906336#12 680906336#13 680906336#14 680906336#15 680906336#16 680906336#17 680346734#0 680346734#1 680346734#2 680346734#3 680346734#4 680346734#5 178664667#7 178664667#0 178664667#1 178664667#2 178664667#3 303998431#0 303998431#1 304769965#0 -1111743019"/>
    </vehicle>
    <vehicle id="veh2" depart="1.00" departLane="best" departPos="random" departSpeed="max">
        <route edges="541955841 541955839#0 541955839#1 541955839#2 541955839#3 541955839#4 541955839#5 541955839#6 541955839#7 541955839#8 384653737#1 384653737#2 384653737#3 384653737#4 384653737#5 1073242997 441108178#5 441108178#6 441108178#7 1283206794 1283206791#0 1283206791#1 1283206791#2 1283206791#3 1283206791#4 1283206791#5 441108174#4 441108174#5 441108174#6 441108174#0 876024581#0 876024581#1 876024581#2 876024581#3 888815896 678817513#0 678817513#1 678817513#2 678817513#3 678817513#4 678817513#5 678817513#6 678817513#7 678817513#8 678817513#9 678817513#10 678817513#11 678817513#12 678817513#13 678817513#14 678817513#15 678817513#16 678817513#17 678817513#18 678817513#19 678817513#20 678817513#21 678817513#22 678817513#23 678817513#24 303868902#3 303868902#4 303868902#5 303868902#6 303868902#0 384626494#0 384626494#1 384626494#2 384626494#3 384626494#4 384626494#5 384626494#6 384626494#7 384626494#8 384626494#9 384626494#10 384626494#11 384626494#12 384626494#13 384626493 680338911#0 680338911#1 680338911#2 680338911#3 680338911#4 680338911#5 680338911#6 615942192#0 831151643 -624238646#0"/>
    </vehicle>
    <vehicle id="veh3" depart="1.00" departLane="best" departPos="random" departSpeed="max">
        <route edges="440441228#14 440441228#15 440441228#16 692537131#0 692537131#1 441108177#12 776690900 441108178#2 306298470#0 306298470#1 306298470#2 306298470#3 306298470#4 682653312#0 682653312#1 682653312#2 682653312#3 682653312#4 682653312#5 682653312#6 682653312#7 682653312#8 682653312#9 682653312#10 682653312#11 1283206793 1283206791#0 1283206791#1 1283206791#2 1283206791#3 1283206791#4 1283206791#5 441108174#4 441108174#5 441108174#6 441108174#0 876024581#0 876024581#1 876024581#2 876024581#3 888815896 678817513#0 678817513#1 678817513#2 678817513#3 678817513#4 678817513#5 678817513#6 678817513#7 678817513#8 678817513#9 678817513#10 678817513#11 678817513#12 678817513#13 678817513#14 678817513#15 678817513#16 678817513#17 678817513#18 678817513#19 678817513#20 678817513#21 678817513#22 678817513#23 678817513#24 303868902#3 303868902#4 303868902#5 303868902#6 303868902#0 384626494#0 384626494#1 384626494#2 384626494#3 384626494#4 384626494#5 384626494#6 384626494#7 384626494#8 384626494#9 384626494#10 384626494#11 384626494#12 384626494#13 384626494#14 384626494#15 384626494#16 304780108 304780106#0 304780106#1 304780106#2 304780106#3 304780109#0 304780109#1 304780109#2 304780109#3 304780109#4 304780109#5 304780162#0 304780162#1"/>
    </vehicle>
    <vehicle id="veh4" depart="5.00" departLane="best" departPos="random" departSpeed="max">
        <route edges="-303869212#2 -303869212#1 -303869212#0 303869383#1 303869383#2 520965935#4 520965935#5 520965935#6 520965935#7 520965935#8 520965935#9 303869291#0 303869291#1 303869291#2 303869291#3 303869291#4 303869291#5 303869291#6 303869285#0 303869285#1 303869285#2 192147960#1 192147960#2 192147960#3 192147960#4 192147984 192148007#0 192148007#1 389834206#0 389834206#1 389834206#2 389834206#3 389834206#4 389834206#5 389834206#6 389834206#7 389834206#8 678817513#7 678817513#8 678817513#9 678817513#10 678817513#11 678817513#12 678817513#13 678817513#14 678817513#15 678817513#16 678817513#17 678817513#18 678817513#19 678817513#20 678817513#21 678817513#22 678817513#23 678817513#24 303868902#3 813798948#0 813798948#1 678817517#0 678817517#1 678817517#2 678817517#3 678817517#4"/>
    </vehicle>
    <vehicle id="veh5" depart="5.00" departLane="best" departPos="random" departSpeed="max">
        <route edges="682653312#1 682653312#2 682653312#3 682653312#4 682653312#5 682653312#6 682653312#7 682653312#8 682653312#9 682653312#10 682653312#11 1283206793 1283206791#0 1283206791#1 1283206791#2 1283206791#3 1283206791#4 1283206791#5 441108174#4 441108174#5 441108174#6 441108174#0 876024581#0 876024581#1 876024581#2 876024581#3 888815896 678817513#0 678817513#1 678817513#2 678817513#3 678817513#4 678817513#5 680346735#1 680346735#2 680346735#3 680346735#4 680346735#5 680346735#6 680346735#7 303998336#0 303998336#1"/>
    </vehicle>
    <vehicle id="veh6" depart="6.00" departLane="best" departPos="random" departSpeed="max">
        <route edges="-601905158#2 -601905158#1 -601905158#0 813808268#0 813808268#1 601905159#0 601905159#1 303869361#3 303869361#4 303869361#5 303869361#6 303869361#7 303869361#8 303869361#9 303869361#10 303869361#11 303869361#12 303869361#13 178660910#1 178660910#2 178660910#3 178660910#4 178660910#5 178660910#6 178660910#7 178660910#8 178660910#9"/>
    </vehicle>
    <vehicle id="veh7" depart="6.00" departLane="best" departPos="random" departSpeed="max">
        <route edges="393869999#4 393869999#5 -393869999#5 -393869999#4 -393869999#3 -393869999#2 -393869999#1 -393869999#0 393869995#1 393869995#2 393869995#3 393869997#1 393869997#2 393869997#3 447878210#4 447878210#5 -393870000#1 393869993#0 393869993#1 447878209 447878207 303998442#1 303998442#2 303998442#3 303998442#4 303998442#5 303998442#6 303998442#7 303998442#8 303998442#9 178664667#3 178664667#4 178664667#5 192147965#0 192147965#1 192147965#2 192147965#3 192147965#4 192147965#5 680906336#19 680906336#20 680906336#21 680906336#22 680906336#23 680906336#24 680906336#25 888815897 876023541#0 876023541#1 876023541#2 876023541#3 876023541#4 876023541#5 441108174#2 441108174#3 441108174#4 441108174#5 441104275#0 441104275#1 441104275#2 441104275#3 721090419 441108175#0 441108175#1 441108175#2 441108175#3"/>
    </vehicle>
    <vehicle id="veh8" depart="7.00" departLane="best" departPos="random" departSpeed="max">
        <route edges="-749679389#0 303998273#10 303869087#10 303869087#11 303869087#12 303869087#13 303869087#14 303869087#15 303869087#16 303869087#17 303869087#18 384626494#5 384626494#6 384626494#7 384626494#8 384626494#9 384626494#10 384626494#11 384626494#12 384626494#13 384626493 680338911#0 680338911#1 680338911#2 680338911#3 680338911#4 680338911#5 680338911#6 615942192#0 615942192#1 615942192#2 -304346632#2 178663917#0 178663917#1 304478069#0 396524085"/>
    </vehicle>
    <vehicle id="veh9" depart="7.00" departLane="best" departPos="random" departSpeed="max">
        <route edges="191059905#2 601911122#3 601911122#4 -440442940#2 -440442940#1 -440442940#0 450047742 721090419 441108175#0 441108175#1 441108175#2 441108175#3 441108175#4 441108174#0 876024581#0 876024581#1 876024581#2 876024581#3 888815896 678817513#0 678817513#1 678817513#2 678817513#3 678817513#4 678817513#5 678817513#6 678817513#7 678817513#8 678817513#9 678817513#10 678817513#11 678817513#12 678817513#13 678817513#14 678817513#15 678817513#16 678817513#17 678817513#18 678817513#19 678817513#20 678817513#21 678817513#22 678817513#23 678817513#24 303868902#3 303868902#4 303868902#5 303868902#6 303868902#0 384626494#0 384626494#1 384626494#2 384626494#3 384626494#4 384626494#5 384626494#6 384626494#7 384626494#8 384626494#9 384626494#10 384626494#11 384626494#12 384626494#13 384626493 680338911#0 680338911#1 680338911#2 680338911#3 680338911#4 680338911#5 680338911#6 615942192#0 615942192#1 615942192#2 615942192#3 615942192#4 615942192#5 615942192#6 -917731856 178660916#3 680341235#0 304370835#0"/>
    </vehicle>
    <vehicle id="veh10" depart="7.00" departLane="best" departPos="random" departSpeed="max">
        <route edges="523235719 441104270#0 441104270#1 441104270#2 441104270#3 441104270#4 441104270#5 876024581#1 876024581#2 876024581#3 888815896 678817513#0 678817513#1 678817513#2 678817513#3 678817513#4 678817513#5 680346735#1 680346735#2 680346735#3 680346735#4 680346735#5 680346735#6 680346735#7 680346735#8 680346735#9 680346735#10"/>
    </vehicle>
    <vehicle id="veh11" depart="8.00" departLane="best" departPos="random" departSpeed="max">
        <route edges="625561145#0 -384808497 -304780256#1 -304780256#0 384626491#4 384626491#5 384626491#6 384626491#7 303868873#0 303868873#1 680068690#1 680065845#0 680065845#1 813795743#2 -678817517#11 -678817517#10 -678817517#9 -678817517#8 -678817517#7 -678817517#6 -678817517#5 -678817517#4 -678817517#3 -678817517#2 -678817517#1 -678817517#0 813798949 303868902#5 303868902#6 303868902#0 303868902#1 680906336#0 680906336#1 680906336#2 680906336#3 680906336#4 680906336#5 680906336#6 680906336#7 680906336#8 680906336#9 680906336#10 680906336#11 680906336#12 680906336#13 680906336#14 680906336#15 680906336#16 680906336#17 680346734#0 680346734#1 680346734#2 680346734#3 680346734#4 680346734#5 178664667#7 178664667#0 178664667#1 178664667#2 178664667#3 303998431#0 303998431#1 303998431#2 303998346#3 810702124#0 810702124#1 810702124#2 304769964#0 -304769964#0"/>
    </vehicle>
    <vehicle id="veh12" depart="8.00" departLane="best" departPos="random" departSpeed="max">
        <route edges="627698698#2 595140473#2 595140473#3 616660776 616660778#0 1211993976 384681743#3 384681743#4 -616662625#5 -616662625#4 -616662625#3 -616662625#2 -616662625#1 -616662625#0 -601901396#1 -601901396#0 -813819978 -601901409#1 -601901409#0 -304060448#6 -304060448#5 -304060448#4 -304060448#3 304060358"/>
    </vehicle>
    <vehicle id="veh13" depart="8.00" departLane="best" departPos="random" departSpeed="max">
        <route edges="-616662623 -384681747#0 384681743#4 616662625#6 616662625#7 616662625#8 616662625#9 616662625#10 521872565 178660909#4 178660909#5 178660919#5 178660919#6 178660919#7 303869361#0 303869361#1 303869361#2 303869361#3 303869361#4 303869361#5 303869361#6 303869361#7 303869361#8 303869361#9 303869361#10 303869361#11 303869361#12 303869361#13 303869361#14 303869361#15 303869361#16 303869361#17 303869361#18 680906336#0 680906336#1 680906336#2 680906336#3 680906336#4 680906336#5 680906336#6 680906336#7 680906336#8 680906336#9 680906336#10 680906336#11 680906336#12 680906336#13 680906336#14 680906336#15 680906336#16 680906336#17 680906336#18 680906336#19 680906336#20 680906336#21 680906336#22 680906336#23 680906336#24 680906336#25 888815897 -818423547#2 -818423547#1 -818423547#0 -603214878#1 -603214878#0 -302976125#3 -302976125#2 -302976125#1 -302976125#0 303869261#1 303869261#2 303869261#3 303869261#4 303869261#5 384680021#0 384680021#1 384680021#2 -384680021#2"/>
    </vehicle>
    <vehicle id="veh14" depart="9.00" departLane="best" departPos="random" departSpeed="max">
        <route edges="393869995#4 393870001#0 1010107403 -393870000#2 -393870000#1 393869993#0 393869993#1 447878209 447878207 303998442#1 303998442#2 303998442#3 303998442#4 303998442#5 303998442#6 303998442#7 303998442#8 303998442#9 178664667#3 178664667#4 178664667#5 192147965#0 192147965#1 192147965#2 192147965#3 192147965#4 192147965#5 680346735#0 680346735#1 680346735#2 680346735#3 680346735#4 680346735#5 680346735#6 680346735#7 680346735#8 680346735#9 680346735#10 680346735#11 192148007#3 192148007#4 192147982 192147960#0 192147960#1 298839372#0 298839372#1 298839372#2 -384370434#3 -384370434#2 -384370434#1 -384370434#0 -724490027 -305503744#3 305505179 -305505179"/>
    </vehicle>
    <vehicle id="veh15" depart="12.00" departLane="best" departPos="random" departSpeed="max">
        <route edges="-303869321#1 303869321#1 192148009#1 304060488 624176364#2 624176364#3 178660919#3 178660919#4 178660919#5 178660917#0 178660917#1 624963930#0 624963930#1 1111703895 178660911#0 178660911#1 178660911#2 304346632#0 304346632#1 304346632#2 615942192#3 615942192#4 615942192#5 615942192#6 615942192#7 615942192#8 -304769970#11 -304769970#10 -304769970#9 -304769970#8 -304769970#7 393870029#0 393870029#1 406662262#3 406662262#0 406662262#1 406662262#2 -393870029#1"/>
    </vehicle>
    <vehicle id="veh16" depart="12.00" departLane="best" departPos="random" departSpeed="max">
        <route edges="303998296#5 810683455 680906336#23 680906336#24 680906336#25 810420343 678817513#0 678817513#1 678817513#2 678817513#3 678817513#4 678817513#5 678817513#6 678817513#7 678817513#8 678817513#9 678817513#10 678817513#11 678817513#12 678817513#13 678817513#14 678817513#15 678817513#16 678817513#17 678817513#18 678817513#19 678817513#20 678817513#21 678817513#22 678817513#23 678817513#24 303868902#3 303868902#4 303868902#5 303868902#6 303868902#0 384626494#0 384626494#1 384626494#2 384626494#3 384626494#4 384626494#5 384626494#6 384626494#7 384626494#8 384626494#9 384626494#10 384626494#11 384626494#12 384626494#13 384626494#14 384626494#15 384626494#16 384626494#17 384626494#18 384626494#19 384626494#20 384626494#21 178660919#1 178660919#2 178660919#3 681360467#0 681360467#1 681360467#2 681360467#3 681360467#4 681360467#5 303869090#1 303869090#2 303869090#3 303869090#4 303869090#5 304060461#0 304060461#1 304060461#2 304060406#5 304060406#0 302973894#0 302973894#1 302973894#2 -601901409#1 -601901409#0 -304060448#6 -304060448#5 -304060448#4 621977010#0 -683482236#4 -683482236#3 683482236#3"/>
    </vehicle>
    <vehicle id="veh17" depart="13.00" departLane="best" departPos="random" departSpeed="max">
        <route edges="-1117131291#1 -1117131734 1068478371#0 1068478371#1 520965935#6 520965935#7 520965935#8 520965935#9 303869291#0 303869291#1 303869291#2 303869291#3 303869291#4 303869291#5 303869291#6 303869285#0 303869285#1 303869285#2 192147960#1 192147960#2 192147960#3 192147962#0 192147962#1 680068685#1 680068685#2 680068685#3 680068685#4 680068685#5 813795741#0 813795741#1 813795741#2 303869368 384626491#9 384626491#10 303868903#0 303868903#1 303868903#2 303868903#3 303868903#4 303868903#5 303868903#6 303868903#7 -304780109#9 304780160#0 -624157324#1 -624157324#0"/>
    </vehicle>
    <vehicle id="veh18" depart="13.00" departLane="best" departPos="random" departSpeed="max">
        <route edges="303998336#2 303998336#3 303998336#4 298839373#1 298839373#2 298839373#3 303869310#1 303869310#2 303869310#3 303869310#4 764335894 1053277274 721091830#1 810707218#0 810707218#1 301990194#0 301990194#1 301990194#2 384466724#0 384466724#1 403225896#0 -1068479202#2 -1068479202#1 -1117131291#1 -1117131291#0 1068481890#2 1068481890#3 1068481890#4 -1068481893#2 -1068481893#1"/>
    </vehicle>
    <vehicle id="veh19" depart="15.00" departLane="best" departPos="random" departSpeed="max">
        <route edges="-304780160#0 304780109#9 303868903#8 303868903#9 303868903#10 384626493 303869361#8 303869361#9 303869361#10 303869361#11 303869361#12 303869361#13 303869361#14 303869361#15 303869361#16 303869361#17 303869361#18 680906336#0 680906336#1 680906336#2 680906336#3 680906336#4 -304370843#2 303869250#1 -813536801 303869197#4"/>
    </vehicle>
    <vehicle id="veh20" depart="16.00" departLane="best" departPos="random" departSpeed="max">
        <route edges="-624963931 624963931 303869292#4 303869292#5 303869292#6 178660919#7 303869361#0 303869361#1 303869361#2 303869361#3 303869361#4 303869361#5 303869361#6 303869361#7 303869361#8 303869361#9 303869361#10 303869361#11 303869361#12 303869361#13 303869361#14 303869361#15 303869361#16 303869361#17 303869361#18 680906336#0 680906336#1 680906336#2 680906336#3 680906336#4 680906336#5 680906336#6 680906336#7 680906336#8 680906336#9 680906336#10 680906336#11 680906336#12 680906336#13 680906336#14 680906336#15 680906336#16 680906336#17 680906336#18 680906336#19 680906336#20 680906336#21 680906336#22 680906336#23 680906336#24 680906336#25 888815897 -818423547#2 -818423547#1 -818423547#0 -303868892#10 -303868892#9 -303868892#8 -303868892#7 -303868892#6 -303868892#5 -303868892#4 -303868892#3 -303868892#2 -303868892#1 -303868892#0 -810702927#2 -810702927#1 -810702927#0 384681735#0 384681735#1 -886649676#1 -886649676#0"/>
    </vehicle>
    <vehicle id="veh21" depart="17.00" departLane="best" departPos="random" departSpeed="max">
        <route edges="-304478066#1 -304478066#0 304341593 304341592#7 304340010#2 304340011 303869292#6 178660919#7 178660919#8 178660919#0 178660919#1 178660919#2 178660919#3 681360467#0 681360467#1 681360467#2 681360467#3 681360467#4 681360467#5 303869090#1 303869090#2 303869090#3 303869090#4 303869090#5 304060461#0 304060461#1 304060461#2 304060406#5 304060406#0 302973894#0 302973894#1 302973894#2 813819978 601901396#0"/>
    </vehicle>
    <vehicle id="veh22" depart="17.00" departLane="best" departPos="random" departSpeed="max">
        <route edges="810694779#2 810694768 -810694777#1 -810694780#0 810694774#3 957456966 810694766#2 810694764#0 810694764#1 303998442#0 303998442#1 303998442#2 303998442#3 303998442#4 303998442#5 303998442#6 303998442#7 303998442#8 303998442#9 178664667#3 178664667#4 178664667#5 192147965#0 192147965#1 192147965#2 192147965#3 192147965#4 192147965#5 680906336#19 680906336#20 680906336#21 680906336#22 680906336#23 680906336#24 680906336#25 888815897 876023541#0 876023541#1 876023541#2 876023541#3 876023541#4 441104270#7 441104270#8 441104270#9 441104270#10 -384654003#9 -384654003#8 -384654003#7 -384654003#6 -384654003#5"/>
    </vehicle>
    <vehicle id="veh23" depart="18.00" departLane="best" departPos="random" departSpeed="max">
        <route edges="302969378#3 -810693205 692516483#2 298839375#7 298839375#8 298839375#9 192147960#3 192147960#4 192147984 192148007#0 192148007#1 389834206#0 389834206#1 389834206#2 389834206#3 389834206#4 389834206#5 389834206#6 389834206#7 389834206#8 678817513#7 678817513#8 678817513#9 678817513#10 678817513#11 678817513#12 678817513#13 678817513#14 678817513#15 678817513#16 678817513#17 678817513#18 678817513#19 678817513#20 678817513#21 678817513#22 678817513#23 678817513#24 303868902#3 303868902#4 303868902#5 303868902#6 303868902#0 384626494#0 384626494#1 384626494#2 384626494#3 384626494#4 384626494#5 384626494#6 384626494#7 384626494#8 384626494#9 384626494#10 384626494#11 384626494#12 384626494#13 384626493 680338911#0 680338911#1 680338911#2 680338911#3 680338911#4 680338911#5 680338911#6 -601905158#2 -601905158#1 -601905158#0 -178663917#9 304478064#0 -304478064#0"/>
    </vehicle>
    <vehicle id="veh24" depart="22.00" departLane="best" departPos="random" departSpeed="max">
        <route edges="384654003#2 384654003#3 384654003#4 384654003#5 384654003#6 384654003#7 384654003#8 384654003#9 440441228#0 -1073242998 441108177#4 441108177#5 441108177#6 441108183 1283206794 1283206791#0 1283206791#1 1283206791#2 1283206791#3 1283206791#4 1283206791#5 441108174#4 441108174#5 441108174#6 441108174#0 876024581#0 876024581#1 876024581#2 876024581#3 888815896 678817513#0 678817513#1 678817513#2 678817513#3 678817513#4 678817513#5 678817513#6 678817513#7 678817513#8 678817513#9 678817513#10 678817513#11 678817513#12 678817513#13 678817513#14 678817513#15 678817513#16 678817513#17 678817513#18 678817513#19 678817513#20 678817513#21 678817513#22 678817513#23 678817513#24 303868902#3 303868902#4 303868902#5 303868902#6 303868902#0 384626494#0 384626494#1 384626494#2 384626494#3 384626494#4 384626494#5 384626494#6 384626494#7 384626494#8 384626494#9 384626494#10 384626494#11 384626494#12 384626494#13 384626494#14 384626494#15 384626494#16 384626494#17 384626494#18 384626494#19 384626494#20 384626494#21 178660919#1 178660919#2 178660919#3 681360467#0 681360467#1 681360467#2 681360467#3 681360467#4 681360467#5 303869090#1 303869090#2 303869090#3 303869090#4 303869090#5 304060461#0 304060461#1 304060461#2 304060406#5 304060406#0 302973894#0 302973894#1 302973894#2 -601901409#1 601901409#1"/>
    </vehicle>
    <vehicle id="veh25" depart="23.00" departLane="best" departPos="random" departSpeed="max">
        <route edges="304780165#1 304780144#1 304780144#0 -304780165#1 -304780165#0 -304780131#4 -304780131#3 -304780131#2 -304780131#1 -304780131#0 303868903#5 303868903#6 303868903#7 303868903#8 303868903#9 303868903#10 384626493 303869361#8 303869361#9 303869361#10 303869361#11 303869361#12 303869361#13 303869361#14 303869361#15 303869361#16 303869361#17 303869361#18 680906336#0 680906336#1 680906336#2 680906336#3 680906336#4 680906336#5 680906336#6 680906336#7 680906336#8 680906336#9 680906336#10 680906336#11 680906336#12 680906336#13 680906336#14 680906336#15 680906336#16 680906336#17 680906336#18 680906336#19 680906336#20 680906336#21 680906336#22 680906336#23 680906336#24 680906336#25 888815897 876023541#0 876023541#1 876023541#2 876023541#3 876023541#4 876023541#5 441108174#2 441108174#3 441108174#4 441108174#5 441104275#0 441104275#1 441104275#2 441104275#3 -450047742 440442940#0 -191059961#2 -191059961#1 191059905#1"/>
    </vehicle>
    <vehicle id="veh26" depart="24.00" departLane="best" departPos="random" departSpeed="max">
        <route edges="-384370435#1 -384370436 -384370434#1 -384370434#0 298839370#4 682104754 303869285#1 303869285#2 192147960#1 192147960#2 192147960#3 192147960#4 192147984 192148007#0 192148007#1 389834206#0 389834206#1 389834206#2 389834206#3 389834206#4 389834206#5 389834206#6 389834206#7 389834206#8 678817513#7 678817513#8 678817513#9 678817513#10 678817513#11 678817513#12 678817513#13 678817513#14 678817513#15 678817513#16 678817513#17 678817513#18 678817513#19 678817513#20 678817513#21 678817513#22 678817513#23 678817513#24 303868902#3 303868902#4 303868902#5 303868902#6 303868902#0 384626494#0 384626494#1 384626494#2 384626494#3 384626494#4 384626494#5 384626494#6 384626494#7 384626494#8 384626494#9 384626494#10 384626494#11 384626494#12 384626494#13 384626494#14 384626494#15 384626494#16 384626494#17 384626494#18 384626494#19 384626494#20 384626494#21 178660919#1 178660919#2 178660919#3 681360467#0 681360467#1 681360467#2 681360467#3 681360467#4 681360467#5 303869090#1 303869090#2 303869090#3 303869090#4 303869090#5 304060461#0 304060461#1 304060461#2 304060406#5 304060406#0 302973894#0 302973894#1 302973894#2 -601901409#1 -601901409#0 -304060448#6 -304060448#5 -304060448#4 -304060448#3 304060358 304060405#2 304060405#3 304060405#4 304060405#0 304060345#0 304060345#1 304060345#2 304060345#3 304060345#4"/>
    </vehicle>
    <vehicle id="veh27" depart="29.00" departLane="best" departPos="random" departSpeed="max">
        <route edges="1083445499 303998272#13 303998272#14 303998272#15 303998272#16 303998272#17 303998272#18 303998272#19 447878206 303998442#4 303998442#5 303998442#6 303998442#7 303998442#8 303998442#9 178664667#3 178664667#4 178664667#5 192147965#0 192147965#1 192147965#2 192147965#3 192147965#4 192147965#5 680346735#0 678817513#6 678817513#7 678817513#8 678817513#9 678817513#10 678817513#11 678817513#12 678817513#13 678817513#14 678817513#15 678817513#16 678817513#17 678817513#18 678817513#19 678817513#20 678817513#21 678817513#22 678817513#23 678817513#24 303868902#3 813798948#0 813798948#1 678817517#0 678817517#1 678817517#2 1111732245#0 1111732245#1 1111732245#2 1111732245#3 -384808491#1 -384808491#0"/>
    </vehicle>
    <vehicle id="veh28" depart="29.00" departLane="best" departPos="random" departSpeed="max">
        <route edges="305512569#0 305512569#1 306112430#1 306112430#0 -305512569#1 -305512569#0 -678817517#7 -678817517#6 -678817517#5 -678817517#4 -678817517#3 -678817517#2 -678817517#1 -678817517#0 813798949 303868902#5 303868902#6 303868902#0 384626494#0 384626494#1 384626494#2 384626494#3 384626494#4 384626494#5 384626494#6 384626494#7 384626494#8 384626494#9 384626494#10 384626494#11 384626494#12 384626494#13 384626493 680338911#0 680338911#1 680338911#2 680338911#3 680338911#4 680338911#5 680338911#6 615942192#0 615942192#1 615942192#2 615942192#3 615942192#4 -682079916 -625208373 625208372#0 625208372#1"/>
    </vehicle>
    <vehicle id="veh29" depart="30.00" departLane="best" departPos="random" departSpeed="max">
        <route edges="681604088#0 307410363#1 -384466723#3 -384466723#2 -384466723#1 -384466723#0 -301990194#2 -301990194#1 -301990194#0 899785413#0 899785413#1 899785414#0 899785414#1 899785415 -810683457#3 -810683457#2 -810683457#1 -810683457#0 876023541#0 876023541#1 876023541#2 876023541#3 876023541#4 441104270#7 441104270#8 441104270#9 441104270#10 -384654003#9 -384654003#8 -384654003#7 -384654003#6 -384654003#5 -384654003#4 -384654003#3 -384654003#2 -384654003#1"/>
    </vehicle>
    <vehicle id="veh30" depart="31.00" departLane="best" departPos="random" departSpeed="max">
        <route edges="680906336#25 810420343 678817513#0 678817513#1 678817513#2 678817513#3 678817513#4 678817513#5 678817513#6 678817513#7 678817513#8 678817513#9 678817513#10 678817513#11 678817513#12 678817513#13 678817513#14 678817513#15 678817513#16 678817513#17 678817513#18 678817513#19 678817513#20 678817513#21 678817513#22 678817513#23 678817513#24 303868902#3 813798948#0 813798948#1 678817517#0 678817517#1 678817517#2 678817517#3 678817517#4 678817517#5 678817517#6 678817517#7 305512569#0 305512569#1 305512569#2"/>
    </vehicle>
    <vehicle id="veh31" depart="32.00" departLane="best" departPos="random" departSpeed="max">
        <route edges="-393870002#13 -393870009 393870004#2 -393870007 393870003#1 393869997#0 393869997#1 393869997#2 393869997#3 447878210#4 447878210#5 -393870000#1 393869993#0 393869993#1 447878209 447878207 303998442#1 303998442#2 303998442#3 303998442#4 303998442#5 303998442#6 303998442#7 303998442#8 303998442#9 178664667#3 178664667#4 178664667#5 192147965#0 192147965#1 192147965#2 192147965#3 192147965#4 192147965#5 680906336#19 680906336#20 680906336#21 680906336#22 680906336#23 680906336#24 680906336#25 888815897 876023541#0 876023541#1 876023541#2 876023541#3 876023541#4 441104270#7 441104270#8 441104270#9 441104270#10 -384654003#9 -384654003#8 -384654003#7 -384654003#6 -384654003#5 -384654003#4 -384654003#3 384653737#0 -541955839#8 -541955839#7 -541955839#6 -541955839#5 -541955839#4 -541955839#3 541955839#3"/>
    </vehicle>
    <vehicle id="veh32" depart="34.00" departLane="best" departPos="random" departSpeed="max">
        <route edges="-541954901#15 541954901#15 541954901#16 541954901#17 541954901#18 541954901#19 541954901#20 541954901#21 541954901#22 384654003#9 440441228#0 440441228#1 440441228#2 440441228#3 440441228#4 440441228#5 440441228#6 440441228#7"/>
    </vehicle>
    <vehicle id="veh33" depart="35.00" departLane="best" departPos="random" departSpeed="max">
        <route edges="382854739 382854737 304057802#12 304057802#13 304057802#14 304057802#15 304057802#16 304057802#17 813798950 680906336#9 680906336#10 680906336#11 680906336#12 680906336#13 680906336#14 680906336#15 680906336#16 680906336#17 680906336#18 680906336#19"/>
    </vehicle>
    <vehicle id="veh34" depart="35.00" departLane="best" departPos="random" departSpeed="max">
        <route edges="-303998402#4 -303998402#3 818396694#0 818396694#1 304760019#3"/>
    </vehicle>
    <vehicle id="veh35" depart="37.00" departLane="best" departPos="random" departSpeed="max">