<?xml version="1.0" encoding="UTF-8"?>

<!-- generated on 2025-10-13 17:24:56 by Eclipse SUMO duarouter Version 1.24.0
<duarouterConfiguration xmlns:xsi="http://www.w3.org/2001/XMLSchema-instance" xsi:noNamespaceSchemaLocation="http://sumo.dlr.de/xsd/duarouterConfiguration.xsd">

    <input>
        <net-file value="./Networks/Zanjan_1.net.xml"/>
        <route-files value="./Networks/Zanjan_1.trips.xml"/>
    </input>

    <output>
        <output-file value="./routes/Zanjan_1.rou.xml"/>
    </output>

    <report>
        <ignore-errors value="true"/>
    </report>

</duarouterConfiguration>
-->

<routes xmlns:xsi="http://www.w3.org/2001/XMLSchema-instance" xsi:noNamespaceSchemaLocation="http://sumo.dlr.de/xsd/routes_file.xsd">
    <vehicle id="veh0" depart="2.00" departLane="best" departPos="random" departSpeed="max">
        <route edges="521872564#1 304060481#0 304060481#1 304060481#2 601901409#1 813819978 601901396#0 601901396#1 616662625#0 616662625#1 616662625#2 616662625#3 616662625#4 616662625#5 616662625#6 616662625#7 616662625#8 616662625#9 616662625#10 521872565 178660909#4 178660909#5 178660919#5 178660919#6 178660919#7 303869361#0 303869361#1 303869361#2 303869361#3 303869361#4 303869361#5 303869361#6 303869361#7 303869361#9 303869361#10 303869361#11 303869361#12 303869361#13 303869361#14 303869361#15 303869361#16 303869361#17 303869361#18 680906336#0 680906336#1 680906336#2 680906336#3 680906336#4 680906336#5 680906336#6 680906336#7 680906336#8 680906336#9 680906336#10 680906336#11 680906336#12 680906336#13 680906336#14 680906336#15 680906336#16 680906336#17 680906336#19 680906336#20 680906336#21 680906336#22 680906336#23 680906336#24 680906336#25 888815897 -818423547#2 -818423547#1 -818423547#0 -303868892#10 -303868892#9 -303868892#8 -303868892#7 384680035 303869098#5 303869098#0 303869098#1 303869098#2 303869098#3 384680034#0"/>
    </vehicle>
    <vehicle id="veh1" depart="3.00" departLane="best" departPos="random" departSpeed="max">
        <route edges="-627476094 382854734#3 382854734#0 382854735#0 382854735#1 382854735#2 382854732#2 382854733 -304057802#9 -304057802#8 -304057802#7 -304057802#6 -304057802#5 -304057802#4 -304057802#3 -304057802#2 -304057802#1 -304057802#0 625564209#1 389834206#4 1111726905 680346735#8 680346735#9 680346735#10 680346735#11 192148007#3 303869300#0 303869300#1 303869300#2 303869310#1 303869310#2 303869310#3 303869310#4 764335894 1053277274 721091830#1 810707218#0 810707218#1 301990194#0 301990194#1 301990194#2 384466724#0 384466724#1 403225896#0 -1068479202#2 -1068479202#1 -1117131291#1 -1117131291#0"/>
    </vehicle>
    <vehicle id="veh2" depart="3.00" departLane="best" departPos="random" departSpeed="max">
        <route edges="541955839#2 541955839#3 541955839#4 541955839#5 541955839#6 541955839#7 541955839#8 384653737#1 384653737#2 384653737#3 384653737#4 384653737#5 1073242997 441108178#5 441108178#6 441108178#7 1283206794 1283206791#0 1283206791#1 1283206791#2 1283206791#3 1283206791#4 1283206791#5 441108174#4 441108174#5 441108174#6 441108174#0 876024581#0 876024581#1 876024581#2 876024581#3 888815896 678817513#0 678817513#1 678817513#2 678817513#3 678817513#4 678817513#5 678817513#7 678817513#8 678817513#9 678817513#10 678817513#11 678817513#12 678817513#13 678817513#14 678817513#15 678817513#16 678817513#17 678817513#18 678817513#19 678817513#20 678817513#21 678817513#22 678817513#23 678817513#24 303868902#3 303868902#4 303868902#5 303868902#6 303868902#0 384626494#0 384626494#1 384626494#2 384626494#3 384626494#4 384626494#5 384626494#6 384626494#7 384626494#8 384626494#9 384626494#10 384626494#11 384626494#12 384626494#14 384626494#15 384626494#16 304780108 304780106#0 304780106#1 304780106#2 304780106#3 304780109#0 304780109#1 304780109#2 304780109#3 304780109#4 304780109#5 304780109#6 304780109#7 304780109#8 304780160#0 -624157324#1"/>
    </vehicle>
    <vehicle id="veh3" depart="3.00" departLane="best" departPos="random" departSpeed="max">
        <route edges="410670010#3 410670010#4 -410670010#4 -410670010#3 566559289#0 566559289#1 566559289#2 303998442#3 303998442#4 303998442#5 303998442#6 303998442#7 303998442#8 303998442#9 178664667#3 178664667#4 178664667#5 192147965#0 192147965#1 192147965#2 192147965#3 192147965#4 192147965#5 192147965#5.58 678817513#7 678817513#8 678817513#9 678817513#10 678817513#11 678817513#12 678817513#13 678817513#14 678817513#15 678817513#16 678817513#17 678817513#18 678817513#19 678817513#20 678817513#21 678817513#22 678817513#23 678817513#24 303868902#3 303868902#4 303868902#5 303868902#6 303868902#0 384626494#0 384626494#1 384626494#2 384626494#3 384626494#4 384626494#5 384626494#6 384626494#7 384626494#8 384626494#9 384626494#10 384626494#11 384626494#12 384626494#14 384626494#15 384626494#16 304780108 304780106#0 304780106#1 304780106#2 304780106#3 304780109#0 304780109#1 304780109#2 304780109#3 304780109#4 304780109#5 304780109#6 -304780158 304780143#1 304780143#2 304780159"/>
    </vehicle>
    <vehicle id="veh4" depart="4.00" departLane="best" departPos="random" departSpeed="max">
        <route edges="-303869163#4 302976124#0 -384680040 303868892#1 303868892#2 303868892#3 303868892#4 303868892#5 303868892#6 303868892#7 303868892#8 303868892#9 303868892#10 818423547#0 818423547#1 818423547#2 810683457#0 888815896 678817513#0 678817513#1 678817513#2 678817513#3 678817513#4 678817513#5 678817513#7 678817513#8 678817513#9 678817513#10 678817513#11 678817513#12 678817513#13 678817513#14 678817513#15 678817513#16 678817513#17 678817513#18 678817513#19 678817513#20 678817513#21 678817513#22 678817513#23 678817513#24 303868902#3 813798948#0 813798948#1 678817517#0 678817517#1"/>
    </vehicle>
    <vehicle id="veh5" depart="6.00" departLane="best" departPos="random" departSpeed="max">
        <route edges="682137749#0 682137749#1 -303998336#2 -303998336#1 -303998336#0 303998336#0 303998336#1"/>
    </vehicle>
    <vehicle id="veh6" depart="7.00" departLane="best" departPos="random" departSpeed="max">
        <route edges="-601901409#0 -304060448#6 304060448#6 601901409#0 601901409#1 813819978 601901396#0 601901396#1 616662625#0 616662625#1 616662625#2 616662625#3 616662625#4 616662625#5 616662625#6 616662625#7 616662625#8 616662625#9 616662625#10 521872565 178660909#4 178660909#5 178660919#5 178660919#6 178660919#7 303869361#0 303869361#1 303869361#2 303869361#3 303869361#4 303869361#5 303869361#6 303869361#7 303869361#9 303869361#10 303869361#11 303869361#12 303869361#13 178660910#1 178660910#2 178660910#3 178660910#4 178660910#5 178660910#6 178660910#7 178660910#8 178660910#9 178660910#10 178660910#11 178660910#12 178660910#13 178660910#14 178660910#15 178660910#16"/>
    </vehicle>
    <vehicle id="veh7" depart="7.00" departLane="best" departPos="random" departSpeed="max">
        <route edges="393869997#0 393869997#1 393869997#2 393869997#3 447878210#4 447878210#5 -393870000#1 393869993#0 393869993#1 447878209 447878207 303998442#1 303998442#2 303998442#3 303998442#4 303998442#5 303998442#6 303998442#7 303998442#8 303998442#9 178664667#3 178664667#4 178664667#5 192147965#0 192147965#1 192147965#2 192147965#3 192147965#4 192147965#5 192147965#5.58 680906336#19 680906336#20 680906336#21 680906336#22 680906336#23 680906336#24 680906336#25 888815897 876023541#0 876023541#1 876023541#2 876023541#3 876023541#4 441104270#7 441104270#8 441104270#9 441104270#10 440441228#0 440441228#1 440441228#2 440441228#3 440441228#4 440441228#5 440441228#6 440441228#7 440441228#8 440441228#9 440441228#10 440441228#11 384653737#5 441108177#10"/>
    </vehicle>
    <vehicle id="veh8" depart="9.00" departLane="best" departPos="random" departSpeed="max">
        <route edges="-683481654#0 -304780111#2 -304780111#1 -304780111#0 -304780106#4 304780109#0 304780109#1 304780109#2 304780109#3 304780109#4 304780109#5 304780109#6 304780109#7 304780109#8 304780109#9 303868903#8 303868903#9 303868903#10 303869361#9 303869361#10 303869361#11 303869361#12 303869361#13 303869361#14 303869361#15 303869361#16 303869361#17 303869361#18 680906336#0 680906336#1 680906336#2 680906336#3 680906336#4 680906336#5 680906336#6 680906336#7 680906336#8 680906336#9 680906336#10 680906336#11 680906336#12 680906336#13 680906336#14 680906336#15 678817508#0 678817508#1 680346734#2 680346734#3 680346734#4 680346734#5 178664667#7 178664667#0 178664667#1 178664667#2 178664667#3 303998431#0 303998431#1 303998431#2 303998346#3 810702124#0 810702124#1 810702124#2 304769964#0 396566620"/>
    </vehicle>
    <vehicle id="veh9" depart="10.00" departLane="best" departPos="random" departSpeed="max">
        <route edges="178663917#4 -178663917#4 -178663917#3 -178663917#2 -178663917#1 -178663917#0 304346632#2 615942192#3 615942192#4 -682079916 682079915#0 682079915#1 682079915#2 682079915#3 -192147973#1 304370834#0"/>
    </vehicle>
    <vehicle id="veh10" depart="11.00" departLane="best" departPos="random" departSpeed="max">
        <route edges="520965937#5 520965937#6 520965934 520965935#3 520965935#4 520965935#5 520965935#6 520965935#7 520965935#8 520965935#9 303869291#0 303869291#1 303869291#2 303869291#3 303869291#4 303869291#5 303869291#6 303869285#0 303869285#1 303869285#2 192147960#1 192147960#2 192147960#3 192147960#4 192147984 192148007#0 192148007#1 389834206#0 389834206#1 389834206#2 389834206#3 389834206#4 389834206#5 389834206#6 389834206#7 389834206#8 680346734#0 680346734#1 680346734#2 680346734#3 680346734#4"/>
    </vehicle>
    <vehicle id="veh11" depart="12.00" departLane="best" departPos="random" departSpeed="max">
        <route edges="625044671 304341592#4 304341592#5 304341592#6 304341592#7 -304340010#1 -304340010#0 178663917#8 178663917#9 813808268#0 813808268#1 601905159#0 601905159#1 303869361#3 303869361#4 303869361#5 303869361#6 303869361#7 303869361#9 303869361#10 303869361#11 303869361#12 303869361#13 303869361#14 303869361#15 303869361#16 303869361#17 303869361#18 680906336#0 680906336#1 680906336#2 680906336#3 680906336#4 680906336#5 680906336#6 680906336#7 680906336#8 680906336#9 680906336#10 680906336#11 680906336#12 680906336#13 680906336#14 680906336#15 678817508#0 678817508#1 680346734#2 680346734#3 680346734#4 680346734#5 178664667#7 178664667#0 178664667#1 178664667#2 178664667#3 303998431#0 303998431#1 303998431#2 303998346#3 303998346#4 303998346#5 -303869417#3 304769961#0 -304769961#0"/>
    </vehicle>
    <vehicle id="veh12" depart="12.00" departLane="best" departPos="random" departSpeed="max">
        <route edges="627567975#0 627567975#1 627567975#2 627567975#3 627567975#4 627567975#5 627567975#6 -304780110#1 304780112 673280614 384626494#20 384626494#21 178660919#1 178660919#2 178660919#3 681360467#0 681360467#1 681360467#2 681360467#3 681360467#4 681360467#5 303869090#1 303869090#2 303869090#3 303869090#4 303869090#5 304060461#0 304060461#1 304060461#2 304060406#5 304060406#0 302973894#0 302973894#1 302973894#2 -601901409#1 -601901409#0 -304060448#6 -304060448#5 -304060448#4 -304060448#3 304060358 304060405#2 304060405#3 304060405#4 304060405#0 304060345#0 304060345#1 304060345#2 304060345#3 304060371"/>
    </vehicle>
    <vehicle id="veh13" depart="13.00" departLane="best" departPos="random" departSpeed="max">
        <route edges="-303869261#8 -303869261#7 -303869261#6 -303869261#5 -303869261#4 -303869261#3 -303869261#2 -303869261#1 302976125#0 302976125#1 302976125#2 302976125#3 603214878#0 603214878#1 818423547#0 818423547#1 818423547#2 876023541#0 876023541#1 876023541#2 876023541#3 876023541#4 441104270#7 441104270#8 441104270#9 441104270#10 440441228#0 440441228#1 440441228#2 440441228#3 440441228#4 440441228#5 440441228#6 440441228#7 440441228#8 440441228#9 440441228#10 440441228#11 440441228#12 440441228#13 440441228#14 440441228#15 440441228#16 692537131#0 692537131#1 441108177#12 441108177#13 -697188467#1 395050293#0 395050293#1 -395050293#1"/>
    </vehicle>
    <vehicle id="veh14" depart="13.00" departLane="best" departPos="random" departSpeed="max">
        <route edges="303998273#10 303869087#10 303869087#11 303869087#12 303869087#13 303869087#14 303869087#15 303869087#16 303869087#17 303869087#18 384626494#5 384626494#6 384626494#7 384626494#8 384626494#9 384626494#10 384626494#11 384626494#12 384626494#14 384626494#15 384626494#16 384626494#17 384626494#18 384626494#19 384626494#20 384626494#21 178660919#1 178660919#2 178660919#3 681360467#0 681360467#1 681360467#2 681360467#3 681360467#4 681360467#5 303869090#1 303869090#2 303869090#3 303869090#4 303869090#5 304060461#0 304060461#1 304060461#2 304060406#5 304060406#0 302973894#0 302973894#1 302973894#2 -601901409#1 -601901409#0 -304060448#6 -304060448#5 -304060448#4 621977010#0 -683482236#4 683482236#4"/>
    </vehicle>
    <vehicle id="veh15" depart="14.00" departLane="best" departPos="random" departSpeed="max">
        <route edges="-1111743019 -304769965#1 -304769965#0 303998431#2 303998346#3 303998346#4 303998346#5 303998346#0 303998346#1 303998446#0 303998430#0 303998430#1 192147965#2 192147965#3 192147965#4 192147965#5 192147965#5.58 680346735#1 680346735#2 680346735#3 680346735#4 680346735#5 680346735#6 680346735#7 680346735#8 680346735#9 680346735#10 680346735#11 192148007#3 303869300#0 303869300#1 303869300#2 303869310#1 303869310#2 303869310#3 303869310#4 764335894 1053277274 721091830#1 810707218#0 810707218#1 301990194#0 305503746#0 -621064081#2"/>
    </vehicle>
    <vehicle id="veh16" depart="15.00" departLane="best" departPos="random" departSpeed="max">
        <route edges="303998273#6 303998273#7 303998273#8 303998273#9 303998273#10 303869087#10 303869087#11 303869087#12 303869087#13 303869087#14 303869087#15 303869087#16 303869087#17 303869361#15 303869361#16 303869361#17 303869361#18 680906336#0 680906336#1 680906336#2 680906336#3 680906336#4 680906336#5 680906336#6 680906336#7 680906336#8 680906336#9 680906336#10 680906336#11 680906336#12 680906336#13 680906336#14 680906336#15 680906336#16 680906336#17 680346735#1 680346735#2 680346735#3 680346735#4 680346735#5 680346735#6 680346735#7 680346735#8 680346735#9 680346735#10 680346735#11 192148007#3 303869300#0 303869300#1 303869300#2 303869310#1 303869310#2 303869310#3 303869310#4 764335894 1053277274 721091830#1 810707218#0 810707218#1 301990194#0 301990194#1 301990194#2 384466724#0 384466724#1 403225896#0 -1068479202#2 -1068479202#1 -1117131291#1 -1117131291#0 1068481890#2 1068481890#3 1068481890#4 -1068481893#2"/>
    </vehicle>
    <vehicle id="veh17" depart="16.00" departLane="best" departPos="random" departSpeed="max">
        <route edges="-304780131#6 -304780131#5 -304780131#4 -304780131#3 -304780131#2 -304780131#1 -304780131#0 303868903#5 303868903#6 303868903#7 303868903#8 303868903#9 303868903#10 303869361#9 303869361#10 303869361#11 303869361#12 303869361#13 178660910#1 178660910#2 178660910#3 178660910#4 178660910#5 303869035 303869099#1 303869189"/>
    </vehicle>
    <vehicle id="veh18" depart="16.00" departLane="best" departPos="random" departSpeed="max">
        <route edges="-620222800 -601911122#7 -601911122#6 -601911122#5 -440442940#2 -440442940#1 -440442940#0 450047742 721090419 441108175#0 441108175#1 441108175#2 441108175#3 441108175#4 441108174#0 876024581#0 876024581#1 876024581#2 876024581#3 888815896 678817513#0 678817513#1 678817513#2 678817513#3 678817513#4 678817513#5 678817513#7 678817513#8 678817513#9 678817513#10 678817513#11 678817513#12 678817513#13 678817513#14 678817513#15 678817513#16 678817513#17 678817513#18 678817513#19 678817513#20 678817513#21 678817513#22 678817513#23 678817513#24 303868902#3 303868902#4 303868902#5 303868902#6 303868902#0 384626494#0 384626494#1 384626494#2 384626494#3 384626494#4 384626494#5 384626494#6 384626494#7 384626494#8 384626494#9 384626494#10 384626494#11 384626494#12 680338911#0 680338911#1 680338911#2 680338911#3 680338911#4 680338911#5 680338911#6 615942192#0 615942192#1 693155998 -624238646#1 -831151643"/>
    </vehicle>
    <vehicle id="veh19" depart="17.00" departLane="best" departPos="random" departSpeed="max">
        <route edges="-304370844 303869087#13 303869087#14 303869087#15 303869087#16 303869087#17 303869087#18 384626494#5 384626494#6 384626494#7 384626494#8 384626494#9 384626494#10 384626494#11 384626494#12 384626494#14 384626494#15 384626494#16 384626494#17 384626494#18 384626494#19 384626494#20 384626494#21 178660919#1 178660919#2 178660919#3 681360467#0 681360467#1 681360467#2 681360467#3 681360467#4 681360467#5 303869090#1 303869090#2 303869090#3 303869090#4 303869090#5 304060461#0 304060461#1 304060461#2 304060406#5 304060406#0 302973894#0 302973894#1 302973894#2 -601901409#1 -601901409#0 -304060448#6 -304060448#5 -304060448#4 -304060448#3 304060358 304060405#2 304060405#3 304060405#4 304060405#0 304060345#0 304060472 601901404"/>
    </vehicle>
    <vehicle id="veh20" depart="18.00" departLane="best" departPos="random" departSpeed="max">
        <route edges="810694777#1 -810694777#1 -810694780#0 810694774#3 957456966 810694766#2 810694764#0 810694764#1 303998442#0 303998442#1 303998442#2 303998442#3 303998442#4 303998442#5 303998442#6 303998442#7 303998442#8 303998442#9 178664667#3 178664667#4 178664667#5 192147965#0 192147965#1 192147965#2 192147965#3 192147965#4 192147965#5 192147965#5.58 680906336#19 680906336#20 680906336#21 680906336#22 680906336#23 680906336#24 680906336#25 888815897 876023541#0 876023541#1 876023541#2 876023541#3 876023541#4 441104270#7 441104270#8 441104270#9 441104270#10 -384654003#9 -384654003#8 -384654003#7 -384654003#6 -384654003#5 -384654003#4"/>
    </vehicle>
    <vehicle id="veh21" depart="22.00" departLane="best" departPos="random" departSpeed="max">
        <route edges="298839373#3 303869310#1 303869310#2 303869310#3 303869310#4 764335894 1053277274 721091830#1 303869291#0 303869291#1 303869291#2 303869291#3 303869291#4 303869291#5 303869291#6 303869285#0 303869285#1 303869285#2 192147960#1 192147960#2 192147960#3 192147960#4 192147984 192148007#0 192148007#1 389834206#0 389834206#1 389834206#2 389834206#3 389834206#4 389834206#5 389834206#6 678817510#0 678817510#1 678817513#9 678817513#10 678817513#11 678817513#12 678817513#13 678817513#14 678817513#15 678817513#16 678817513#17 678817513#18 -997832138 -304370843#2 -304370843#1 -304370843#0"/>
    </vehicle>
    <vehicle id="veh22" depart="23.00" departLane="best" departPos="random" departSpeed="max">
        <route edges="384653736#0 384653736#1 1073242990 384653737#4 384653737#5 1073242997 441108178#5 441108178#6 441108178#7 1283206794 1283206791#0 1283206791#1 1283206791#2 1283206791#3 1283206791#4 1283206791#5 441108174#4 441108174#5 441108174#6 441108174#0 876024581#0 876024581#1 876024581#2 876024581#3 888815896 678817513#0 678817513#1 678817513#2 678817513#3 678817513#4 678817513#5 678817513#7 678817513#8 678817513#9 678817513#10 678817513#11 678817513#12 678817513#13 678817513#14 678817513#15 678817513#16 678817513#17 678817513#18 678817513#19 678817513#20 678817513#21 678817513#22 678817513#23 678817513#24 303868902#3 303868902#4 303868902#5 303868902#6 303868902#0 384626494#0 384626494#1 384626494#2 384626494#3 384626494#4 384626494#5 384626494#6 384626494#7 384626494#8 384626494#9 384626494#10 384626494#11 384626494#12 680338911#0 680338911#1 680338911#2 680338911#3 680338911#4 680338911#5 680338911#6 -601905158#2 601905158#2"/>
    </vehicle>
    <vehicle id="veh23" depart="23.00" departLane="best" departPos="random" departSpeed="max">
        <route edges="304780131#8 -304780131#8 -304780131#7 -304780131#6 -304780131#5 -304780131#4 -304780131#3 -304780131#2 -304780131#1 -304780131#0 303868903#5 303868903#6 303868903#7 303868903#8 303868903#9 303868903#10 303869361#9 303869361#10 303869361#11 303869361#12 303869361#13 178660910#1 178660910#2 178660910#3 178660910#4 178660910#5 178660910#6 178660910#7 178660910#8 178660910#9 178660910#10 178660910#11 -178664673#4 178664673#4"/>
    </vehicle>
    <vehicle id="veh24" depart="25.00" departLane="best" departPos="random" departSpeed="max">
        <route edges="-384370433#1 384370438 -384370434#0 298839370#4 682104754 303869285#1 303869285#2 192147960#1 192147960#2 192147960#3 192147960#4 192147984 192148007#0 192148007#1 389834206#0 389834206#1 389834206#2 389834206#3 389834206#4 389834206#5 389834206#6 678817510#0 678817510#1 678817513#9 678817513#10 678817513#11 678817513#12 678817513#13 678817513#14 678817513#15 678817513#16 678817513#17 678817513#18 678817513#19 678817513#20 678817513#21 678817513#22 678817513#23 678817513#24 303868902#3 303868902#4 303868902#5 303868902#6 303868902#0 384626494#0 384626494#1 384626494#2 384626494#3 384626494#4 384626494#5 384626494#6 384626494#7 384626494#8 384626494#9 384626494#10 384626494#11 384626494#12 384626494#14 384626494#15 384626494#16 384626494#17 384626494#18 384626494#19 384626494#20 384626494#21 178660919#1 178660919#2 178660919#3 681360467#0 681360467#1 681360467#2 681360467#3 681360467#4 681360467#5 303869090#1 303869090#2 303869090#3 303869090#4 303869090#5 304060461#0 304060461#1 304060461#2 304060406#5 304060406#0 302973894#0 302973894#1 302973894#2 -601901409#1 -601901409#0 -304060448#6 -304060448#5 -304060448#4 621977010#0 -683482236#4 -683482236#3 -683482236#2 -683482236#1 -683482236#0 -304060486 -683482235#0 -304060452 304060345#6"/>
    </vehicle>
    <vehicle id="veh25" depart="27.00" departLane="best" departPos="random" departSpeed="max">
        <route edges="1073242985#5 1073242985#6 1073242985#7 1073242985#8 1073242990 384653737#4 384653737#5 1073242997 441108178#5 441108178#6 441108178#7 1283206794 1283206791#0 1283206791#1 1283206791#2 1283206791#3 1283206791#4 1283206791#5 441108174#4 441108174#5 441108174#6 441108174#0 876024581#0 876024581#1 876024581#2 876024581#3 888815896 678817513#0 678817513#1 678817513#2 678817513#3 678817513#4 678817513#5 678817513#7 678817513#8 678817513#9 678817513#10 678817513#11 678817513#12 678817513#13 678817513#14 678817513#15 678817513#16 678817513#17 678817513#18 678817513#19 678817513#20 678817513#21 678817513#22 678817513#23 678817513#24 303868902#3 813798948#0 813798948#1 678817517#0 678817517#1 678817517#2 1111732245#0 1111732245#1 1111732245#2 1111732245#3 -384808491#1 -384808491#0"/>
    </vehicle>
    <vehicle id="veh26" depart="29.00" departLane="best" departPos="random" departSpeed="max">
        <route edges="304780256#3 304780256#4 304780256#5 304780256#6 304780257#2 304780257#0 306112444 384626494#8 384626494#9 384626494#10 384626494#11 384626494#12 680338911#0 680338911#1 680338911#2 680338911#3 680338911#4 680338911#5 680338911#6 615942192#0 615942192#1 615942192#2 615942192#3 615942192#4 -682079916 682079915#0 682079915#1 682079915#2 682079915#3 -192147973#1 -192147973#0 -192147970#5 -192147970#4 -192147970#3 -192147970#2 -192147970#1 -192147970#0 -1148139314 625207385"/>
    </vehicle>
    <vehicle id="veh27" depart="29.00" departLane="best" departPos="random" departSpeed="max">
        <route edges="681377288#0 681377288#1 -818975607 303869087#0 303869087#1 303869087#2 303869087#3 303869087#4 303869087#5 303869087#6 303869087#7 303869087#8 303869087#9 303869087#10 303869087#11 303869087#12 303869087#13 303869087#14 303869087#15 303869087#16 303869087#17 303869361#15 303869361#16 303869361#17 303869361#18 680906336#0 680906336#1 680906336#2 680906336#3 680906336#4 680906336#5 680906336#6 680906336#7 680906336#8 680906336#9 680906336#10 680906336#11 680906336#12 680906336#13 680906336#14 680906336#15 680906336#16 680906336#17 680906336#19 680906336#20 680906336#21 680906336#22 680906336#23 680906336#24 680906336#25 888815897 876023541#0 876023541#1 876023541#2 876023541#3 876023541#4 441104270#7 441104270#8 441104270#9 441104270#10 -384654003#9 -384654003#8 -384654003#7 -384654003#6 -384654003#5 -384654003#4 -384654003#3 -384654003#2 -384654003#1"/>
    </vehicle>
    <vehicle id="veh28" depart="29.00" departLane="best" departPos="random" departSpeed="max">
        <route edges="680906336#20 680906336#21 680906336#22 680906336#23 680906336#24 680906336#25 888815897 810683457#0 810683457#1 810683457#2 810683457#3 551426422#0 551426422#1 721091830#0 721091830#1 303869291#0 303869291#1 303869291#2 303869291#3 -306112443#2 -306112443#1 -306112443#0 -305503748 305503748"/>
    </vehicle>
    <vehicle id="veh29" depart="30.00" departLane="best" departPos="random" departSpeed="max">
        <route edges="-393870001#4 -393870008#0 393870004#1 393870004#2 -393870007 393870003#1 393869997#0 393869997#1 393869997#2 393869997#3 447878210#4 447878210#5 -393870000#1 393869993#0 393869993#1 447878209 447878207 303998442#1 303998442#2 303998442#3 303998442#4 303998442#5 303998442#6 303998442#7 303998442#8 303998442#9 178664667#3 178664667#4 178664667#5 192147965#0 192147965#1 192147965#2 192147965#3 192147965#4 192147965#5 192147965#5.58 680906336#19 680906336#20 680906336#21 680906336#22 680906336#23 680906336#24 680906336#25 888815897 876023541#0 876023541#1 876023541#2 876023541#3 876023541#4 441104270#7 441104270#8 441104270#9 441104270#10 -384654003#9 -384654003#8 -384654003#7 -384654003#6 -384654003#5 -384654003#4 -384654003#3 384653737#0 -541955839#8 -541955839#7 541955839#7 541955839#8"/>
    </vehicle>
    <vehicle id="veh30" depart="30.00" departLane="best" departPos="random" departSpeed="max">
        <route edges="-541954901#0 541954901#0 541954901#1 541954901#2 541954901#3 541954901#4 541954901#5 541954901#6 541954901#7 541954901#8 384653737#3 384653737#4 384653737#5 1073242997 441108178#5 441108178#6 441108178#7 1283206794 1283206791#0 1283206791#1 1283206791#2 1283206791#3 1283206791#4 1283206791#5 441108174#4 441108174#5 441104275#0 441104275#1 441104275#2 441104275#3 -450047742 440442940#0"/>
    </vehicle>
    <vehicle id="veh31" depart="30.00" departLane="best" departPos="random" departSpeed="max">
        <route edges="307846174#0 307846174#1 304346624#1 -304478075#0 178660909#5 178660919#5 178660919#6 178660919#7 303869361#0 303869361#1 303869361#2 303869361#3 303869361#4 303869361#5 303869361#6 303869361#7 303869361#9 303869361#10 303869361#11 303869361#12 303869361#13 303869361#14 303869361#15 303869361#16 303869361#17 303869361#18 680906336#0 680906336#1 680906336#2 680906336#3 680906336#4 680906336#5 680906336#6 680906336#7 680906336#8 680906336#9 680906336#10 680906336#11 680906336#12 680906336#13 680906336#14 680906336#15 680906336#16 680906336#17"/>
    </vehicle>
    <vehicle id="veh32" depart="30.00" departLane="best" departPos="random" departSpeed="max">
        <route edges="-303998402#1 -303998402#0 303869087#5 303869087#6 303869087#7 303869087#8 303869087#9 303869087#10 303869087#11 303869087#12 303869087#13 303869087#14 303869087#15 303869087#16 303869087#17 303869087#18 384626494#5 384626494#6 384626494#7 384626494#8 384626494#9 384626494#10 384626494#11 384626494#12 680338911#0 680338911#1 680338911#2 680338911#3 680338911#4 680338911#5 680338911#6 615942192#0 615942192#1 615942192#2 -304346632#2 -304346632#1 -304346632#0 304478073#0 304478073#1"/>
    </vehicle>
    <vehicle id="veh33" depart="30.00" departLane="best" departPos="random" departSpeed="max">
        <route edges="-303868892#2 303868892#2 303868892#3 303868892#4 303868892#5 303868892#6 303868892#7 303868892#8 303868892#9 303868892#10 818423547#0 818423547#1 818423547#2 810683457#0 810683457#1 810683457#2 810683457#3 551426422#0 551426422#1 721091830#0 721091830#1 810707218#0 810707218#1 301990194#0 301990194#1 301990194#2 384466723#0 384466723#1 384466723#2 384466723#3 384466723#4"/>
    </vehicle>
    <vehicle id="veh34" depart="31.00" departLane="best" departPos="random" departSpeed="max">
        <route edges="304060448#6 601901409#0 601901409#1 813819978 601901396#0 601901396#1 616662625#0 616662625#1 616662625#2 616662625#3 616662625#4 616662625#5 616662625#6 616662625#7 616662625#8 616662625#9 616662625#10 521872565 178660909#4 178660909#5 178660919#5 178660919#6 178660919#7 303869361#0 303869361#1 303869361#2 303869361#3 303869361#4 303869361#5 303869361#6 303869361#7 303869361#9 303869361#10 303869361#11 303869361#12 303869361#13 303869361#14 303869361#15 303869361#16 303869361#17 303869361#18 680906336#0 680906336#1 680906336#2 680906336#3 680906336#4 680906336#5 680906336#6 680906336#7 680906336#8 680906336#9 680906336#10 680906336#11 680906336#12 680906336#13 680906336#14 680906336#15 678817508#0 678817508#1 680346734#2 680346734#3 680346734#4 680346734#5 178664667#7 178664667#0 178664667#1 178664667#2 178664667#3 178664667#4 178664667#5 192147965#0 192147965#1 192147965#2 192147965#3 192147965#4 1111723628 303998296#1 303998296#2 303998296#3"/>
    </vehicle>
    <vehicle id="veh35" depart="31.00" departLane="best" departPos="random" departSpeed="max">
        <route edges="304780165#1 304780144#1 304780144#0 -304780165#1 -304780165#0 -304780131#4 -304780131#3 -304780131#2 -304780131#1 -304780131#0 303868903#5 303868903#6 303868903#7 303868903#8 303868903#9 303868903#10 303869361#9 303869361#10 303869361#11 303869361#12 303869361#13 303869361#14 303869361#15 303869361#16 303869361#17 303869361#18 680906336#0 680906336#1 680906336#2 680906336#3 680906336#4 680906336#5 680906336#6 680906336#7 680906336#8 680906336#9 680906336#10 680906336#11 680906336#12 680906336#13 680906336#14 680906336#15 680906336#16 680906336#17 680906336#19 680906336#20 680906336#21 680906336#22 680906336#23 680906336#24 680906336#25 888815897 876023541#0 876023541#1 876023541#2 876023541#3 876023541#4 441104270#7 441104270#8 441104270#9 441104270#10 -384654003#9 -384654003#8 -384654003#7 -384654003#6 -384654003#5 -384654003#4 -384654003#3 384653737#0 -541955839#8 -541955839#7 -541955839#6 -541955839#5 -541955839#4 -541955839#3 -541955839#2 384654535"/>
    </vehicle>
    <vehicle id="veh36" depart="31.00" departLane="best" departPos="random" departSpeed="max">